<?xml version="1.0" encoding="UTF-8"?>

<!-- generated on 2021-12-12 04:55:15 by Eclipse SUMO polyconvert Version v1_11_0+0500-2dacdf4c114
<configuration xmlns:xsi="http://www.w3.org/2001/XMLSchema-instance" xsi:noNamespaceSchemaLocation="http://sumo.dlr.de/xsd/polyconvertConfiguration.xsd">

    <input>
        <net-file value="osm.net.xml"/>
        <osm-files value="osm_bbox.osm.xml"/>
        <osm.keep-full-type value="true"/>
        <type-file value="/home/nbiottalk/Traffic_Simulation/sumo/data/typemap/osmPolyconvert.typ.xml"/>
    </input>

    <output>
        <output-file value="osm.poly.xml"/>
    </output>

    <processing>
        <poi-layer-offset value="5"/>
    </processing>

    <report>
        <verbose value="true"/>
    </report>

</configuration>
-->

<additional xmlns:xsi="http://www.w3.org/2001/XMLSchema-instance" xsi:noNamespaceSchemaLocation="http://sumo.dlr.de/xsd/additional_file.xsd">
    <location netOffset="-294974.12,-2742721.10" convBoundary="-153.65,-343.52,3651.17,2695.82" origBoundary="120.970376,24.782780,121.007911,24.810124" projParameter="+proj=utm +zone=51 +ellps=WGS84 +datum=WGS84 +units=m +no_defs"/>

    <poly id="1002978601" type="building.apartments" color="255,230,230" fill="1" layer="-1.00" shape="924.493786,1166.793044 919.635228,1178.841781 941.193298,1187.419863 946.051871,1175.371135 924.493786,1166.793044"/>
    <poly id="1010525081" type="building.apartments" color="255,230,230" fill="1" layer="-1.00" shape="1964.739882,1668.572094 1953.669331,1675.005918 1965.774870,1695.612767 1976.845572,1689.190028 1964.739882,1668.572094"/>
    <poly id="1010525082" type="building.apartments" color="255,230,230" fill="1" layer="-1.00" shape="1971.535035,1660.938127 1980.191217,1676.687561 1999.314603,1666.301824 1990.658439,1650.552381 1971.535035,1660.938127"/>
    <poly id="1010525222" type="building.apartments" color="255,230,230" fill="1" layer="-1.00" shape="2474.674546,1332.032917 2477.277200,1326.754188 2481.748961,1328.926604 2483.536097,1325.277429 2487.875433,1327.385313 2490.133943,1322.776398 2500.299612,1327.701593 2493.661413,1341.238255 2474.674546,1332.032917"/>
    <poly id="103770484" type="amenity.parking" color="184,184,179" fill="1" layer="-1.00" shape="1172.016016,2084.059945 1295.470183,2167.127527 1312.755845,2141.256633 1320.471426,2128.190852 1337.511476,2099.376490 1214.714668,2018.381740 1172.016016,2084.059945"/>
    <poly id="103770490" type="amenity.parking" color="184,184,179" fill="1" layer="-1.00" shape="828.847894,2027.509628 747.405774,2043.893881 709.587904,2020.366941 675.317471,2067.718486 713.150817,2093.660428 734.419164,2105.976166 753.953522,2117.298290 777.497742,2127.597170 807.975177,2121.883336 806.106379,2108.360781 846.960845,2100.654275 833.290638,2046.168216 828.847894,2027.509628"/>
    <poly id="103770492" type="leisure.track" color="207,245,201" fill="1" layer="-2.00" shape="2340.648722,386.127286 2340.225510,388.991972 2339.622750,391.338564 2338.819374,393.798894 2338.022370,396.004306 2336.778449,398.770245 2335.120582,401.586578 2333.113831,404.751492 2330.777477,407.511309 2327.413557,411.239034 2323.240343,414.956482 2319.277566,417.850969 2315.636620,419.931939 2311.345897,421.845180 2306.880017,423.539406 2303.475291,424.486818 2298.944704,425.218092 2292.554817,425.378379 2288.432676,424.995724 2283.079650,424.132571 2279.231704,423.136528 2275.386713,421.652951 2270.764282,418.884504 2266.241832,416.037035 2262.527049,413.089073 2258.694363,409.688589 2255.653540,405.800066 2253.995910,403.121042 2252.217773,399.812264 2250.270360,395.996320 2248.522125,391.280024 2247.736306,387.358389 2244.092600,290.755520 2244.887351,283.575502 2246.417772,278.279252 2248.646103,272.983834 2252.011723,267.993019 2255.434901,263.477773 2258.979725,259.669820 2262.757266,256.556452 2266.633951,253.995597 2272.987002,251.320830 2279.436594,249.021347 2284.764156,248.145419 2289.833028,247.561353 2292.990816,247.703345 2296.342688,247.975440 2299.685748,248.336300 2302.934028,249.130648 2309.934835,251.997148 2316.709042,255.963835 2321.026977,259.346135 2324.838290,263.356316 2327.830184,267.356366 2330.088956,271.023718 2332.008983,274.352581 2333.455684,277.821345 2334.641744,281.449045 2335.372102,285.039116 2340.648722,386.127286"/>
    <poly id="103770492#1" type="sport.athletics" color="79,230,125" fill="1" layer="-2.00" shape="2340.648722,386.127286 2340.225510,388.991972 2339.622750,391.338564 2338.819374,393.798894 2338.022370,396.004306 2336.778449,398.770245 2335.120582,401.586578 2333.113831,404.751492 2330.777477,407.511309 2327.413557,411.239034 2323.240343,414.956482 2319.277566,417.850969 2315.636620,419.931939 2311.345897,421.845180 2306.880017,423.539406 2303.475291,424.486818 2298.944704,425.218092 2292.554817,425.378379 2288.432676,424.995724 2283.079650,424.132571 2279.231704,423.136528 2275.386713,421.652951 2270.764282,418.884504 2266.241832,416.037035 2262.527049,413.089073 2258.694363,409.688589 2255.653540,405.800066 2253.995910,403.121042 2252.217773,399.812264 2250.270360,395.996320 2248.522125,391.280024 2247.736306,387.358389 2244.092600,290.755520 2244.887351,283.575502 2246.417772,278.279252 2248.646103,272.983834 2252.011723,267.993019 2255.434901,263.477773 2258.979725,259.669820 2262.757266,256.556452 2266.633951,253.995597 2272.987002,251.320830 2279.436594,249.021347 2284.764156,248.145419 2289.833028,247.561353 2292.990816,247.703345 2296.342688,247.975440 2299.685748,248.336300 2302.934028,249.130648 2309.934835,251.997148 2316.709042,255.963835 2321.026977,259.346135 2324.838290,263.356316 2327.830184,267.356366 2330.088956,271.023718 2332.008983,274.352581 2333.455684,277.821345 2334.641744,281.449045 2335.372102,285.039116 2340.648722,386.127286"/>
    <poly id="115786640" type="leisure.track" color="207,245,201" fill="1" layer="-2.00" shape="2199.741148,1171.363893 2209.098440,1165.996945 2215.881177,1166.440185 2224.609524,1168.516751 2232.815533,1174.279350 2237.531693,1181.378425 2242.040390,1242.514672 2236.658648,1251.379678 2229.963178,1256.873696 2223.101135,1259.290099 2216.459126,1260.850160 2209.654443,1259.598452 2202.417976,1255.804833 2204.199442,1275.865575 2196.767464,1276.661697 2185.727388,1163.371058 2193.551664,1162.425140 2195.143324,1176.450407 2199.741148,1171.363893"/>
    <poly id="115786655" type="waterway.stream" color="181,209,209" fill="0" layer="-4.00" shape="2905.513139,1698.670262 2839.233533,1676.795465 2832.282433,1674.504158 2828.782666,1674.466795 2782.780284,1673.999643 2649.556914,1642.958156 2589.559622,1628.160731 2579.729908,1624.748435 2544.151927,1612.407196 2405.495426,1584.062406 2383.547795,1579.830999 2242.876463,1554.830102 2163.072946,1532.946593 2137.287808,1531.863116 2103.525822,1537.843736 2085.144080,1538.845235"/>
    <poly id="123644966" type="landuse.grass" color="194,194,130" fill="1" layer="-3.00" shape="1271.910057,1484.405077 1265.329687,1485.333175 1260.438304,1483.521878 1255.365841,1480.405881 1252.994183,1475.266792 1251.100512,1469.622071 1251.691687,1465.137247 1254.267126,1460.102395 1258.344755,1454.746222 1309.048395,1437.888290 1313.855739,1438.116485 1318.348697,1439.656696 1321.785184,1441.567041 1324.868822,1445.609848 1326.995541,1451.971300 1325.843101,1459.544487 1323.661328,1464.529196 1320.196667,1468.247623 1271.910057,1484.405077"/>
    <poly id="123644966#1" type="leisure.track" color="207,245,201" fill="1" layer="-2.00" shape="1271.910057,1484.405077 1265.329687,1485.333175 1260.438304,1483.521878 1255.365841,1480.405881 1252.994183,1475.266792 1251.100512,1469.622071 1251.691687,1465.137247 1254.267126,1460.102395 1258.344755,1454.746222 1309.048395,1437.888290 1313.855739,1438.116485 1318.348697,1439.656696 1321.785184,1441.567041 1324.868822,1445.609848 1326.995541,1451.971300 1325.843101,1459.544487 1323.661328,1464.529196 1320.196667,1468.247623 1271.910057,1484.405077"/>
    <poly id="123644966#2" type="sport.running" color="79,230,125" fill="1" layer="-2.00" shape="1271.910057,1484.405077 1265.329687,1485.333175 1260.438304,1483.521878 1255.365841,1480.405881 1252.994183,1475.266792 1251.100512,1469.622071 1251.691687,1465.137247 1254.267126,1460.102395 1258.344755,1454.746222 1309.048395,1437.888290 1313.855739,1438.116485 1318.348697,1439.656696 1321.785184,1441.567041 1324.868822,1445.609848 1326.995541,1451.971300 1325.843101,1459.544487 1323.661328,1464.529196 1320.196667,1468.247623 1271.910057,1484.405077"/>
    <poly id="134752167" type="building.permanent" color="255,230,230" fill="1" layer="-1.00" shape="2315.389962,461.693672 2315.200742,425.378304 2332.312731,425.282225 2332.287329,420.795457 2367.249825,420.614684 2367.464136,461.405734 2315.389962,461.693672"/>
    <poly id="134752167#1" type="leisure.sports_centre" color="207,245,201" fill="1" layer="-2.00" shape="2315.389962,461.693672 2315.200742,425.378304 2332.312731,425.282225 2332.287329,420.795457 2367.249825,420.614684 2367.464136,461.405734 2315.389962,461.693672"/>
    <poly id="134752333" type="building.dormitory" color="255,230,230" fill="1" layer="-1.00" shape="2617.027213,401.628483 2653.066669,367.961972 2684.658352,401.412878 2656.720695,427.504179 2647.505166,417.745388 2663.958463,402.380968 2650.253470,387.879532 2625.708339,410.807885 2617.027213,401.628483"/>
    <poly id="138076303" type="building.apartments" color="255,230,230" fill="1" layer="-1.00" shape="2813.790626,458.263912 2812.715914,434.603127 2772.194705,436.437458 2773.279599,460.098097 2813.790626,458.263912"/>
    <poly id="138076307" type="building.apartments" color="255,230,230" fill="1" layer="-1.00" shape="2913.854193,424.635684 2913.468785,407.978027 2939.484154,407.386773 2939.877149,424.565045 2963.748882,424.016285 2964.432838,453.477262 2938.599739,454.076888 2938.232900,437.995084 2916.535124,438.500992 2916.925882,455.524189 2893.286777,456.069629 2892.580941,425.124335 2913.854193,424.635684"/>
    <poly id="138076312" type="building.apartments" color="255,230,230" fill="1" layer="-1.00" shape="2867.768372,411.150919 2868.175520,427.907975 2888.659703,427.408678 2889.338263,455.108131 2867.923810,455.621050 2867.544934,440.104463 2844.371278,440.665329 2844.796678,457.976087 2818.731482,458.612574 2817.948099,426.527234 2840.363375,425.977430 2840.014531,411.823159 2867.768372,411.150919"/>
    <poly id="138080029" type="amenity.food_court" color="237,199,199" fill="1" layer="-1.00" shape="2293.729988,713.457837 2296.266699,711.260114 2307.858876,703.090610 2300.274873,692.864913 2310.321378,685.504742 2318.184090,696.114131 2324.077894,691.795287 2327.700197,689.138458 2323.438758,683.395432 2331.714005,677.324330 2336.305854,683.527841 2345.121460,677.061037 2354.387499,689.566574 2345.171649,696.327312 2349.602051,701.868435 2349.811554,707.183453 2347.058164,711.157044 2341.670019,714.094615 2343.542624,719.019601 2340.698985,724.423757 2333.331605,725.506894 2327.707968,720.670214 2320.604351,716.985359 2311.264600,719.438068 2305.724758,723.064802 2302.603672,725.415135 2300.323239,722.335316 2293.729988,713.457837"/>
    <poly id="138080029#1" type="building.university" color="255,230,230" fill="1" layer="-1.00" shape="2293.729988,713.457837 2296.266699,711.260114 2307.858876,703.090610 2300.274873,692.864913 2310.321378,685.504742 2318.184090,696.114131 2324.077894,691.795287 2327.700197,689.138458 2323.438758,683.395432 2331.714005,677.324330 2336.305854,683.527841 2345.121460,677.061037 2354.387499,689.566574 2345.171649,696.327312 2349.602051,701.868435 2349.811554,707.183453 2347.058164,711.157044 2341.670019,714.094615 2343.542624,719.019601 2340.698985,724.423757 2333.331605,725.506894 2327.707968,720.670214 2320.604351,716.985359 2311.264600,719.438068 2305.724758,723.064802 2302.603672,725.415135 2300.323239,722.335316 2293.729988,713.457837"/>
    <poly id="138080033" type="building.office" color="255,230,230" fill="1" layer="-1.00" shape="2962.401358,416.945240 2997.222841,447.923159 3040.557849,401.287906 3022.884505,384.439969 2989.009629,420.932239 2972.001667,406.013509 2962.401358,416.945240"/>
    <poly id="138080039" type="building.university" color="255,230,230" fill="1" layer="-1.00" shape="2424.502827,486.516586 2483.168599,483.971890 2484.552182,515.549903 2425.886545,518.094603 2424.502827,486.516586"/>
    <poly id="158364448" type="building.dormitory" color="255,230,230" fill="1" layer="-1.00" shape="2487.646295,620.991023 2530.240392,617.086809 2542.536634,610.015131 2549.652023,599.330012 2571.186490,567.006020 2559.502872,559.299916 2533.545011,598.281009 2485.951109,602.646323 2487.646295,620.991023"/>
    <poly id="158364450" type="building.university" color="255,230,230" fill="1" layer="-1.00" shape="2493.426589,533.767140 2540.315287,524.747807 2544.289009,551.568033 2502.636353,559.679610 2498.607058,542.177938 2494.454062,543.136279 2493.426589,533.767140"/>
    <poly id="158364452" type="building.dormitory" color="255,230,230" fill="1" layer="-1.00" shape="2473.065828,439.935630 2472.532562,427.024930 2537.891662,424.304754 2538.168701,430.782109 2538.448014,437.414541 2532.999864,437.649543 2533.155075,441.336689 2532.225087,441.372486 2530.334936,441.455600 2530.177450,437.613376 2505.442877,438.640875 2502.188079,438.777245 2478.646248,439.754061 2478.852770,444.869691 2482.856349,444.755570 2485.080849,444.711863 2485.376009,460.008115 2483.161624,460.051675 2480.097498,460.085540 2478.247798,460.168068 2477.065171,460.218654 2475.680140,460.261128 2473.182941,460.330997 2472.747660,445.136512 2475.234750,445.066793 2475.659133,445.038409 2475.441198,439.834311 2473.065828,439.935630"/>
    <poly id="158364453" type="building.dormitory" color="255,230,230" fill="1" layer="-1.00" shape="2512.094342,458.386437 2507.081669,458.659381 2507.344467,463.475044 2503.209761,463.613240 2502.945175,458.675731 2498.053847,458.946898 2497.250133,444.145596 2502.464890,443.858606 2502.188079,438.777245 2505.442877,438.640875 2505.721961,443.877313 2511.280367,443.574207 2512.094342,458.386437"/>
    <poly id="158364457" type="amenity.food_court" color="237,199,199" fill="1" layer="-1.00" shape="2201.775897,760.499649 2288.323731,700.696233 2271.620103,676.921440 2216.179569,715.139625 2201.775897,760.499649"/>
    <poly id="158364457#1" type="building.university" color="255,230,230" fill="1" layer="-1.00" shape="2201.775897,760.499649 2288.323731,700.696233 2271.620103,676.921440 2216.179569,715.139625 2201.775897,760.499649"/>
    <poly id="158364463" type="building.dormitory" color="255,230,230" fill="1" layer="-1.00" shape="2558.274881,453.476933 2552.747779,440.739172 2554.384024,426.788444 2578.224894,424.821313 2604.900800,412.021388 2610.834547,423.523398 2595.172378,433.513890 2597.700211,438.983266 2603.353865,436.208108 2611.952453,452.867266 2603.385947,457.025721 2591.939502,435.145629 2558.274881,453.476933"/>
    <poly id="158364466" type="building.dormitory" color="255,230,230" fill="1" layer="-1.00" shape="2539.706255,441.140910 2539.728791,443.367528 2540.156530,455.293711 2540.262886,457.718528 2534.146697,457.919009 2534.295491,462.547994 2540.442015,462.347068 2540.837143,474.118620 2495.042591,475.687643 2493.222904,475.747571 2492.302868,475.772145 2474.216747,476.336573 2473.823998,464.731175 2477.220685,464.614875 2477.065171,460.218654 2478.247798,460.168068 2480.097498,460.085540 2480.241436,464.382217 2503.209761,463.613240 2507.344467,463.475044 2531.455294,462.678278 2531.294763,457.938672 2526.462484,458.098170 2525.906973,441.598089 2530.334936,441.455600 2532.225087,441.372486 2533.155075,441.336689 2539.706255,441.140910"/>
    <poly id="158364467" type="landuse.meadow" color="194,194,130" fill="1" layer="-3.00" shape="2486.201254,486.619689 2486.217688,496.014737 2486.856003,508.502882 2493.151275,528.098550 2537.528998,518.207534 2547.227404,502.266169 2546.083391,481.498091 2486.201254,486.619689"/>
    <poly id="158364470" type="building.dormitory" color="255,230,230" fill="1" layer="-1.00" shape="2561.114140,455.352029 2570.101372,472.991528 2568.474909,473.813088 2564.163616,465.356283 2554.806234,470.069254 2561.252549,482.727061 2603.501296,461.444687 2597.002667,448.665758 2573.810032,460.351019 2569.186281,451.278351 2561.114140,455.352029"/>
    <poly id="158391363" type="amenity.food_court" color="237,199,199" fill="1" layer="-1.00" shape="2126.970880,781.054129 2155.288842,780.959311 2154.780820,796.633014 2155.403514,818.361602 2141.335497,818.402131 2127.085466,818.445348 2126.970880,781.054129"/>
    <poly id="158391363#1" type="building.university" color="255,230,230" fill="1" layer="-1.00" shape="2126.970880,781.054129 2155.288842,780.959311 2154.780820,796.633014 2155.403514,818.361602 2141.335497,818.402131 2127.085466,818.445348 2126.970880,781.054129"/>
    <poly id="160244346" type="building.retail" color="255,230,230" fill="1" layer="-1.00" shape="2086.165281,2060.149035 2111.685284,2105.852971 2116.057946,2113.677204 2123.847808,2127.622417 2136.808630,2120.462906 2134.243324,2115.880516 2141.275363,2111.987971 2144.058858,2116.966013 2203.235255,2084.265007 2200.098399,2078.638464 2212.056189,2072.036664 2205.928101,2061.058419 2177.302787,2009.793805 2086.165281,2060.149035"/>
    <poly id="160244346#1" type="shop.supermarket" color="237,199,255" fill="1" layer="-1.00" shape="2086.165281,2060.149035 2111.685284,2105.852971 2116.057946,2113.677204 2123.847808,2127.622417 2136.808630,2120.462906 2134.243324,2115.880516 2141.275363,2111.987971 2144.058858,2116.966013 2203.235255,2084.265007 2200.098399,2078.638464 2212.056189,2072.036664 2205.928101,2061.058419 2177.302787,2009.793805 2086.165281,2060.149035"/>
    <poly id="161296065" type="leisure.park" color="207,245,201" fill="1" layer="-2.00" shape="730.050851,1093.409203 821.695593,1122.976098 841.734851,1125.272285 733.144582,1085.131370 634.101200,1070.266243 635.558616,1076.482414 730.050851,1093.409203"/>
    <poly id="161763720" type="landuse.grass" color="194,194,130" fill="1" layer="-3.00" shape="1963.992772,1560.736192 1991.074412,1550.266617 2082.536198,1719.145315 2057.411485,1732.001264 1963.992772,1560.736192"/>
    <poly id="161763721" type="leisure.park" color="207,245,201" fill="1" layer="-2.00" shape="2068.654323,1749.662675 2093.277049,1736.370950 2183.236492,1898.835112 2157.370340,1912.144976 2068.654323,1749.662675"/>
    <poly id="161763722" type="landuse.grass" color="194,194,130" fill="1" layer="-3.00" shape="2166.552161,1932.717388 2193.991660,1920.492353 2274.322558,2063.776026 2247.939335,2078.356389 2166.552161,1932.717388"/>
    <poly id="161763723" type="leisure.pitch" color="207,245,201" fill="1" layer="-2.00" shape="2177.539640,1937.153827 2194.716844,1928.547491 2209.350339,1957.426898 2192.183276,1966.033070 2177.539640,1937.153827"/>
    <poly id="161763723#1" type="sport.basketball" color="79,230,125" fill="1" layer="-2.00" shape="2177.539640,1937.153827 2194.716844,1928.547491 2209.350339,1957.426898 2192.183276,1966.033070 2177.539640,1937.153827"/>
    <poly id="163855480" type="amenity.school" color="237,199,199" fill="1" layer="-2.00" shape="3028.586962,1220.080625 3011.470649,1232.939371 2987.030518,1238.781324 2905.503810,1235.986238 2830.908451,1218.243789 2828.815454,1247.280153 2843.138420,1274.347692 2871.069407,1307.298504 2901.428300,1342.374280 2951.986089,1378.295567 2957.448797,1396.352463 2954.470991,1414.012194 2898.015352,1480.184719 2932.338405,1527.699973 3127.319515,1371.021180 3055.031356,1256.521360 3028.586962,1220.080625"/>
    <poly id="163971180" type="landuse.cemetery" color="194,194,130" fill="1" layer="-3.00" shape="1480.443650,154.257257 1591.480893,81.447077 1518.732857,397.606242 1504.029404,431.426804 1392.237604,416.489009 1322.353080,373.002602 1284.286294,345.843459 1256.698093,323.493370 1233.434888,300.193148 1211.286818,298.315205 1192.216681,298.020542 1181.537451,284.428596 1180.501268,271.104251 1205.155519,256.381407 1228.688159,231.448849 1267.939831,210.694019 1329.025980,196.597278 1335.236178,219.218499 1335.721236,238.389827 1355.803745,235.999623 1362.597720,227.567702 1365.782996,215.854096 1370.519524,210.565839 1376.304799,205.062689 1375.210492,187.783850 1394.669975,182.921107 1442.015786,170.545372 1480.443650,154.257257"/>
    <poly id="163971182" type="amenity.school" color="237,199,199" fill="1" layer="-2.00" shape="1076.963411,1132.098985 1053.440782,1092.549402 1112.607252,1001.488606 1146.219626,1013.379003 1155.798822,989.494286 1428.104631,1096.303324 1533.534416,1146.578381 1575.329966,1262.218718 1465.275955,1282.365989 1458.823584,1272.777718 1443.259146,1266.647661 1408.632461,1255.181512 1305.504038,1221.027292 1284.277106,1214.305124 1089.608867,1138.471207 1076.963411,1132.098985"/>
    <poly id="163971183" type="amenity.school" color="237,199,199" fill="0" layer="-2.00" shape="807.273413,768.812599 972.084489,817.463233 989.350149,830.525573 1074.205321,894.740299 1159.155007,975.684052 1134.756012,984.996563 1108.719863,982.755277 1088.932030,1018.712322 1076.589039,1012.967153 1021.934519,1132.147594 963.950937,1110.889974 890.690835,1082.501703 794.452889,1046.686993 814.554294,990.272117 735.215850,951.027983 766.639144,881.914628 751.363778,874.185569 754.458715,868.034988"/>
    <poly id="163971184" type="amenity.school" color="237,199,199" fill="1" layer="-2.00" shape="2261.463585,1402.581185 2251.902241,1324.512308 2252.904504,1312.188396 2259.020066,1300.265787 2275.313833,1297.555754 2288.391912,1287.990518 2317.814655,1268.158437 2305.344363,1230.272838 2259.206433,1192.460718 2180.732666,1094.641500 2142.900113,1125.831940 2178.959116,1203.832695 2186.084834,1281.992738 2150.948752,1279.163110 2138.914488,1394.144576 2121.600551,1468.486944 2261.463585,1402.581185"/>
    <poly id="180365522" type="building.university" color="255,230,230" fill="1" layer="-1.00" shape="2507.740678,1061.421901 2524.678368,1048.808879 2506.163141,1024.207325 2527.530474,1008.127969 2516.973327,994.455789 2478.866888,1023.588476 2507.740678,1061.421901"/>
    <poly id="180365523" type="building.university" color="255,230,230" fill="1" layer="-1.00" shape="2296.389258,1131.487709 2344.285957,1092.073094 2352.845481,1087.471363 2333.594687,1052.743193 2334.112157,1045.279181 2332.409776,1038.169062 2329.632487,1034.309902 2320.627382,1026.476055 2298.143632,1025.055663 2284.407148,1031.816374 2280.612134,1037.168046 2280.103879,1043.191610 2282.483683,1048.219933 2286.537467,1052.913450 2281.018853,1064.173583 2277.452021,1056.138024 2273.595912,1051.131384 2248.220835,1070.449811 2296.389258,1131.487709"/>
    <poly id="180365525" type="building.university" color="255,230,230" fill="1" layer="-1.00" shape="2516.169861,1103.776504 2552.806618,1075.817712 2560.080123,1070.415106 2569.340546,1059.809307 2531.755295,1009.317967 2516.373521,1020.445676 2543.888835,1058.066430 2511.384185,1081.588279 2501.527860,1068.116340 2493.143611,1057.093507 2485.060991,1063.183862 2516.169861,1103.776504"/>
    <poly id="180365526" type="building.university" color="255,230,230" fill="1" layer="-1.00" shape="2457.795317,1036.384084 2515.569701,992.537491 2505.247895,969.400096 2456.101198,1005.708036 2429.871478,972.323040 2414.558823,984.712898 2426.127544,1002.524924 2457.795317,1036.384084"/>
    <poly id="180370149" type="building.university" color="255,230,230" fill="1" layer="-1.00" shape="2330.554900,1188.055850 2366.727738,1160.225197 2340.884725,1127.000883 2304.712002,1154.842677 2330.554900,1188.055850"/>
    <poly id="180370150" type="building.university" color="255,230,230" fill="1" layer="-1.00" shape="2455.741605,982.579610 2499.060892,959.242452 2483.941597,928.286946 2440.028572,948.386604 2455.741605,982.579610"/>
    <poly id="180522499" type="building.university" color="255,230,230" fill="1" layer="-1.00" shape="2079.869432,1203.472093 2113.472296,1202.435230 2112.795678,1180.485834 2127.939244,1180.019500 2127.326851,1160.373673 2133.624747,1160.170315 2133.166192,1145.485792 2112.219829,1146.126046 2112.646297,1160.002246 2078.608694,1161.056574 2079.869432,1203.472093"/>
    <poly id="180522500" type="building.university" color="255,230,230" fill="1" layer="-1.00" shape="2220.759075,966.995145 2221.369288,921.095411 2177.739499,920.528732 2134.822097,919.575022 2133.892815,960.261084 2168.482597,960.960443 2173.793750,948.661849 2195.047157,948.936792 2194.812065,966.667248 2220.759075,966.995145"/>
    <poly id="180522501" type="building.university" color="255,230,230" fill="1" layer="-1.00" shape="2028.966143,1047.978986 2083.477355,1049.182913 2083.937418,1028.878717 2056.236617,1028.266648 2056.810922,1002.664822 2083.965416,1003.262767 2084.389730,984.654243 2067.190514,984.275556 2040.025867,983.677789 2028.987944,983.430148 2028.419654,995.681228 2028.512657,1002.006191 2032.365221,1001.949543 2035.471472,1002.036823 2042.564508,1002.253834 2041.985818,1028.243507 2029.420250,1027.962932 2028.966143,1047.978986"/>
    <poly id="180522502" type="building.dormitory" color="255,230,230" fill="1" layer="-1.00" shape="2111.310904,619.780170 2134.949161,613.682613 2145.367135,618.526333 2159.993468,618.610576 2162.582858,606.230110 2149.394009,602.102930 2157.276493,570.676806 2174.508410,573.935804 2200.822408,566.835155 2196.170401,552.411672 2172.390545,560.583036 2144.382650,550.834741 2133.122901,599.527847 2106.285014,604.697442 2111.310904,619.780170"/>
    <poly id="180522503" type="building.university" color="255,230,230" fill="1" layer="-1.00" shape="2213.623213,994.155807 2211.860628,1025.636049 2163.345325,1022.947500 2164.745877,997.809966 2152.137828,993.951263 2152.020528,966.697713 2160.663883,962.980984 2171.224503,966.537399 2170.455275,980.264972 2182.854832,980.946974 2181.204742,1010.442364 2198.604659,1011.405449 2199.624231,993.375403 2213.623213,994.155807"/>
    <poly id="180522504" type="building.university" color="255,230,230" fill="1" layer="-1.00" shape="2274.388521,950.840349 2275.443142,1001.302477 2269.720405,1001.419761 2269.327735,982.258214 2243.292500,982.806796 2243.540141,994.846438 2231.103713,995.095591 2231.536186,1015.586082 2271.372685,1014.757217 2271.198326,1006.328376 2285.697365,1006.037888 2285.515369,997.088429 2293.937770,996.920427 2293.054144,950.521921 2274.388521,950.840349"/>
    <poly id="180522505" type="building.university" color="255,230,230" fill="1" layer="-1.00" shape="2080.364674,1221.335865 2100.201748,1220.922369 2099.995505,1211.020429 2080.158417,1211.433925 2080.364674,1221.335865"/>
    <poly id="180522506" type="building.university" color="255,230,230" fill="1" layer="-1.00" shape="2386.641046,1226.320441 2418.592225,1200.269197 2396.494806,1173.471250 2379.874553,1187.021540 2364.533487,1199.522692 2375.767481,1213.140505 2386.641046,1226.320441"/>
    <poly id="180522507" type="building.university" color="255,230,230" fill="1" layer="-1.00" shape="2284.210072,1169.214567 2296.474616,1160.026919 2271.968897,1127.658351 2259.704173,1136.834943 2284.210072,1169.214567"/>
    <poly id="180522508" type="building.university" color="255,230,230" fill="1" layer="-1.00" shape="1948.505044,1268.999719 1967.922927,1268.281971 1974.832265,1239.517939 1947.459163,1240.529975 1948.505044,1268.999719"/>
    <poly id="180522509" type="building.yes" color="255,230,230" fill="1" layer="-1.00" shape="1854.826922,1186.894876 1888.443015,1192.250087 1894.967127,1151.747513 1861.350941,1146.392280 1854.826922,1186.894876"/>
    <poly id="180522510" type="building.dormitory" color="255,230,230" fill="1" layer="-1.00" shape="2231.036398,657.242204 2268.336075,654.400994 2267.916874,643.072957 2229.201654,645.946035 2231.036398,657.242204"/>
    <poly id="180522511" type="building.university" color="255,230,230" fill="1" layer="-1.00" shape="1971.153718,1049.937137 2010.906316,1050.283163 2011.501994,983.498921 1971.739094,983.153030 1971.153718,1049.937137"/>
    <poly id="180522511#1" type="leisure.stadium" color="207,245,201" fill="1" layer="-2.00" shape="1971.153718,1049.937137 2010.906316,1050.283163 2011.501994,983.498921 1971.739094,983.153030 1971.153718,1049.937137"/>
    <poly id="180522512" type="building.university" color="255,230,230" fill="1" layer="-1.00" shape="1973.485999,971.272387 2010.285054,971.584314 2010.628301,930.962227 1973.839413,930.661220 1973.485999,971.272387"/>
    <poly id="180522512#1" type="leisure.stadium" color="207,245,201" fill="1" layer="-2.00" shape="1973.485999,971.272387 2010.285054,971.584314 2010.628301,930.962227 1973.839413,930.661220 1973.485999,971.272387"/>
    <poly id="180522512#2" type="sport.table_tennis" color="79,230,125" fill="1" layer="-2.00" shape="1973.485999,971.272387 2010.285054,971.584314 2010.628301,930.962227 1973.839413,930.661220 1973.485999,971.272387"/>
    <poly id="180522513" type="building.university" color="255,230,230" fill="1" layer="-1.00" shape="1973.327713,884.866545 2013.639377,885.370586 2014.444341,821.807385 1974.132493,821.303329 1973.327713,884.866545"/>
    <poly id="180522514" type="building.university" color="255,230,230" fill="1" layer="-1.00" shape="2107.292878,916.888468 2146.503757,920.954468 2149.046991,910.945655 2149.885098,895.023351 2132.679718,895.608570 2121.707106,896.368112 2115.001796,898.449869 2110.844911,903.264019 2107.876229,911.849854 2107.292878,916.888468"/>
    <poly id="180522515" type="building.university" color="255,230,230" fill="1" layer="-1.00" shape="1797.231082,1122.462817 1818.773110,1123.120690 1821.021760,1050.517497 1810.033126,1050.180674 1799.479620,1049.859613 1797.231082,1122.462817"/>
    <poly id="180522515#1" type="leisure.stadium" color="207,245,201" fill="1" layer="-2.00" shape="1797.231082,1122.462817 1818.773110,1123.120690 1821.021760,1050.517497 1810.033126,1050.180674 1799.479620,1049.859613 1797.231082,1122.462817"/>