<?xml version="1.0" encoding="UTF-8"?>

<!-- generated on 2021-12-12 04:55:31 by Eclipse SUMO duarouter Version v1_11_0+0500-2dacdf4c114
<configuration xmlns:xsi="http://www.w3.org/2001/XMLSchema-instance" xsi:noNamespaceSchemaLocation="http://sumo.dlr.de/xsd/duarouterConfiguration.xsd">

    <input>
        <net-file value="/home/nbiottalk/Traffic_Simulation/sumo/tools/2021-12-12-04-54-57/osm.net.xml"/>
        <route-files value="/home/nbiottalk/Traffic_Simulation/sumo/tools/2021-12-12-04-54-57/osm.bus.trips.xml"/>
    </input>

    <output>
        <output-file value="/home/nbiottalk/Traffic_Simulation/sumo/tools/2021-12-12-04-54-57/osm.bus.trips.xml.tmp"/>
        <write-trips value="true"/>
    </output>

    <time>
        <begin value="0"/>
        <end value="3600"/>
    </time>

    <report>
        <no-warnings value="true"/>
        <ignore-errors value="true"/>
        <no-step-log value="true"/>
    </report>

</configuration>
-->

<routes xmlns:xsi="http://www.w3.org/2001/XMLSchema-instance" xsi:noNamespaceSchemaLocation="http://sumo.dlr.de/xsd/routes_file.xsd">
    <vType id="bus_bus" vClass="bus"/>
    <trip id="bus0" type="bus_bus" depart="0.00" departLane="best" from="217699220#1" to="-117737738"/>
    <trip id="bus1" type="bus_bus" depart="9.32" departLane="best" departSpeed="max" from="257146087#0" to="286896819#1"/>
    <trip id="bus2" type="bus_bus" depart="18.63" departLane="best" departSpeed="max" from="-544316442#1" to="-123644946#2"/>
    <trip id="bus3" type="bus_bus" depart="27.95" departLane="best" departSpeed="max" from="-115786625#1" to="-28949622#5"/>
    <trip id="bus4" type="bus_bus" depart="37.26" departLane="best" from="-257123503" to="255433926#4"/>
    <trip id="bus5" type="bus_bus" depart="46.58" departLane="best" from="328894970#2" to="-103972663#0"/>
    <trip id="bus6" type="bus_bus" depart="55.89" departLane="best" from="328894969#4" to="29252080"/>
    <trip id="bus7" type="bus_bus" depart="65.21" departLane="best" departSpeed="max" from="-343182575#3" to="-256727252"/>
    <trip id="bus8" type="bus_bus" depart="74.52" departLane="best" departSpeed="max" from="-163855475#3" to="-213112343"/>
    <trip id="bus9" type="bus_bus" depart="83.84" departLane="best" from="328913048#6" to="256727225#1"/>
    <trip id="bus10" type="bus_bus" depart="93.15" departLane="best" from="328894970#1" to="327350116#4"/>
    <trip id="bus11" type="bus_bus" depart="102.47" departLane="best" departSpeed="max" from="117737738" to="935662922#1"/>
    <trip id="bus12" type="bus_bus" depart="111.78" departLane="best" from="-392565518#2" to="217699222#4"/>
    <trip id="bus13" type="bus_bus" depart="121.10" departLane="best" from="328908574#2" to="256727245#4"/>
    <trip id="bus14" type="bus_bus" depart="130.41" departLane="best" from="330164982#4" to="231543472#1"/>
    <trip id="bus15" type="bus_bus" depart="139.73" departLane="best" from="256727246#5" to="-139246420#0"/>
    <trip id="bus16" type="bus_bus" depart="149.04" departLane="best" from="-257131830#4" to="-447027862#0"/>
    <trip id="bus17" type="bus_bus" depart="158.36" departLane="best" departSpeed="max" from="-163855466" to="-328894970#7"/>
    <trip id="bus18" type="bus_bus" depart="167.67" departLane="best" departSpeed="max" from="-185740089#1" to="-36691118#1"/>
    <trip id="bus19" type="bus_bus" depart="176.99" departLane="best" departSpeed="max" from="213112343" to="-94874369#2"/>
    <trip id="bus20" type="bus_bus" depart="186.30" departLane="best" from="-29252057#6" to="552534223#1"/>
    <trip id="bus21" type="bus_bus" depart="195.62" departLane="best" departSpeed="max" from="230154937" to="256727234#3"/>
    <trip id="bus22" type="bus_bus" depart="204.93" departLane="best" departSpeed="max" from="-231543472#1" to="327350116#3"/>
    <trip id="bus23" type="bus_bus" depart="214.25" departLane="best" from="-230154945#4" to="103770485#3"/>
    <trip id="bus24" type="bus_bus" depart="223.56" departLane="best" from="99596852#2" to="257123503"/>
    <trip id="bus26" type="bus_bus" depart="242.19" departLane="best" departSpeed="max" from="-328894975#3" to="-34995730#4"/>
    <trip id="bus27" type="bus_bus" depart="251.51" departLane="best" from="-257026287" to="556926006"/>
    <trip id="bus28" type="bus_bus" depart="260.82" departLane="best" departSpeed="max" from="230154944#0" to="115786609#0"/>
    <trip id="bus29" type="bus_bus" depart="270.14" departLane="best" from="540335839#14" to="163855456"/>
    <trip id="bus30" type="bus_bus" depart="279.45" departLane="best" from="-29252057#10" to="-328908575#0"/>
    <trip id="bus31" type="bus_bus" depart="288.77" departLane="best" from="160244944#2" to="-330164983#0"/>
    <trip id="bus33" type="bus_bus" depart="307.40" departLane="best" departSpeed="max" from="-442036640" to="-32056140#3"/>
    <trip id="bus35" type="bus_bus" depart="326.03" departLane="best" from="-185740099#1" to="256727249#4"/>
    <trip id="bus36" type="bus_bus" depart="335.34" departLane="best" from="327350116#1" to="123644951#6"/>
    <trip id="bus37" type="bus_bus" depart="344.66" departLane="best" departSpeed="max" from="-163855457#1" to="103770491#2"/>
    <trip id="bus38" type="bus_bus" depart="353.97" departLane="best" from="99596860#9" to="211105142#7"/>
    <trip id="bus39" type="bus_bus" depart="363.29" departLane="best" from="94694447#1" to="439860652"/>
    <trip id="bus40" type="bus_bus" depart="372.60" departLane="best" from="-103972671#6" to="32056136#5"/>
    <trip id="bus41" type="bus_bus" depart="381.92" departLane="best" from="255433926#5" to="213109754#3"/>
    <trip id="bus42" type="bus_bus" depart="391.23" departLane="best" from="-29252057#6" to="257123505"/>
    <trip id="bus43" type="bus_bus" depart="400.55" departLane="best" from="-552534223#2" to="800638433#2"/>
    <trip id="bus44" type="bus_bus" depart="409.86" departLane="best" from="531659284#2" to="439860655#0"/>
    <trip id="bus45" type="bus_bus" depart="419.18" departLane="best" from="185740099#1" to="-256727249#3"/>
    <trip id="bus46" type="bus_bus" depart="428.50" departLane="best" from="29252057#8" to="213109755#2"/>
    <trip id="bus47" type="bus_bus" depart="437.81" departLane="best" from="29548788#0" to="211105144#0"/>
    <trip id="bus48" type="bus_bus" depart="447.13" departLane="best" from="-103770485#0" to="-544316506#1"/>
    <trip id="bus49" type="bus_bus" depart="456.44" departLane="best" from="35972290#3" to="34995731#0"/>
    <trip id="bus50" type="bus_bus" depart="465.76" departLane="best" from="-328894971#1" to="-163855459#2"/>
    <trip id="bus52" type="bus_bus" depart="484.39" departLane="best" departSpeed="max" from="-163855473#2" to="163855474#1"/>
    <trip id="bus53" type="bus_bus" depart="493.70" departLane="best" departSpeed="max" from="29252063#0" to="-255433926#4"/>
    <trip id="bus54" type="bus_bus" depart="503.02" departLane="best" departSpeed="max" from="-861860030" to="217699222#1"/>
    <trip id="bus55" type="bus_bus" depart="512.33" departLane="best" from="-29252057#10" to="439860655#1"/>
    <trip id="bus56" type="bus_bus" depart="521.65" departLane="best" departSpeed="max" from="-544316442#1" to="-32056136#0"/>
    <trip id="bus57" type="bus_bus" depart="530.96" departLane="best" from="123644946#4" to="327350116#4"/>
    <trip id="bus58" type="bus_bus" depart="540.28" departLane="best" from="-544316449#0" to="185740100#2"/>
    <trip id="bus59" type="bus_bus" depart="549.59" departLane="best" departSpeed="max" from="-257146087#1" to="-326493568#0"/>
    <trip id="bus60" type="bus_bus" depart="558.91" departLane="best" departSpeed="max" from="-163855462#1" to="257026298#0"/>
    <trip id="bus61" type="bus_bus" depart="568.22" departLane="best" departSpeed="max" from="-257146087#1" to="544176916#1"/>
    <trip id="bus62" type="bus_bus" depart="577.54" departLane="best" from="330164982#1" to="-185740092#0"/>
    <trip id="bus64" type="bus_bus" depart="596.17" departLane="best" from="544316453#0" to="230154945#5"/>
    <trip id="bus66" type="bus_bus" depart="614.80" departLane="best" from="328894970#1" to="-28507755#3"/>
    <trip id="bus67" type="bus_bus" depart="624.11" departLane="best" from="-185740083" to="160244944#6"/>
    <trip id="bus68" type="bus_bus" depart="633.43" departLane="best" departSpeed="max" from="-544316442#1" to="163855463#0"/>
    <trip id="bus70" type="bus_bus" depart="652.06" departLane="best" from="94694474#0" to="-213112343"/>
    <trip id="bus71" type="bus_bus" depart="661.37" departLane="best" from="-447027862#2" to="-803257999#0"/>
    <trip id="bus72" type="bus_bus" depart="670.69" departLane="best" from="330164982#4" to="-328910905#1"/>
    <trip id="bus73" type="bus_bus" depart="680.00" departLane="best" from="-256727224#3" to="162974879#0"/>
    <trip id="bus74" type="bus_bus" depart="689.32" departLane="best" departSpeed="max" from="-544316442#1" to="-36691118#1"/>
    <trip id="bus76" type="bus_bus" depart="707.95" departLane="best" from="-544316451" to="439860652"/>
    <trip id="bus77" type="bus_bus" depart="717.26" departLane="best" from="99596871#2" to="35953176#2"/>
    <trip id="bus78" type="bus_bus" depart="726.58" departLane="best" from="92837377" to="544316449#1"/>
    <trip id="bus79" type="bus_bus" depart="735.89" departLane="best" departSpeed="max" from="328913049#0" to="-257074755#0"/>
    <trip id="bus80" type="bus_bus" depart="745.21" departLane="best" from="-392565518#2" to="94694474#2"/>
    <trip id="bus81" type="bus_bus" depart="754.52" departLane="best" from="-29252057#10" to="328910908#1"/>
    <trip id="bus82" type="bus_bus" depart="763.84" departLane="best" from="-552534223#4" to="123644951#8"/>
    <trip id="bus83" type="bus_bus" depart="773.15" departLane="best" departSpeed="max" from="803188454#0" to="99596860#8"/>
    <trip id="bus86" type="bus_bus" depart="801.10" departLane="best" from="92837377" to="231543475#1"/>
    <trip id="bus87" type="bus_bus" depart="810.41" departLane="best" from="123644951#1" to="328894966#5"/>
    <trip id="bus88" type="bus_bus" depart="819.73" departLane="best" from="-99596860#6" to="375910967#6"/>
    <trip id="bus89" type="bus_bus" depart="829.05" departLane="best" departSpeed="max" from="-163855466" to="-283907960#2"/>
    <trip id="bus91" type="bus_bus" depart="847.68" departLane="best" from="-266145023#0" to="-230154945#0"/>
    <trip id="bus92" type="bus_bus" depart="856.99" departLane="best" from="-544316440#1" to="242640352#0"/>
    <trip id="bus93" type="bus_bus" depart="866.31" departLane="best" from="103972673#0" to="544316454"/>
    <trip id="bus94" type="bus_bus" depart="875.62" departLane="best" from="-256727247#3" to="32056136#2"/>
    <trip id="bus95" type="bus_bus" depart="884.94" departLane="best" departSpeed="max" from="-268230301" to="115786609#0"/>
    <trip id="bus96" type="bus_bus" depart="894.25" departLane="best" departSpeed="max" from="242614244#0" to="-544176916#2"/>
    <trip id="bus97" type="bus_bus" depart="903.57" departLane="best" from="-328906745#0" to="328894969#5"/>
    <trip id="bus98" type="bus_bus" depart="912.88" departLane="best" from="-163855463#2" to="163855456"/>
    <trip id="bus99" type="bus_bus" depart="922.20" departLane="best" from="-163855464#0" to="-32056136#2"/>
    <trip id="bus100" type="bus_bus" depart="931.51" departLane="best" from="36691118#1" to="442036640"/>
    <trip id="bus101" type="bus_bus" depart="940.83" departLane="best" departSpeed="max" from="-36691118#2" to="-256983320#0"/>
    <trip id="bus102" type="bus_bus" depart="950.14" departLane="best" departSpeed="max" from="328908575#0" to="29252090#2"/>
    <trip id="bus103" type="bus_bus" depart="959.46" departLane="best" from="185740100#2" to="94874369#2"/>
    <trip id="bus104" type="bus_bus" depart="968.77" departLane="best" from="230154941#1" to="-103972671#0"/>
    <trip id="bus105" type="bus_bus" depart="978.09" departLane="best" from="328894974#4" to="-544176916#1"/>
    <trip id="bus106" type="bus_bus" depart="987.40" departLane="best" from="230154945#4" to="552534223#5"/>
    <trip id="bus107" type="bus_bus" depart="996.72" departLane="best" from="-213109755#3" to="-230154944#0"/>
    <trip id="bus108" type="bus_bus" depart="1006.03" departLane="best" from="-185740095#1" to="217699222#6"/>
    <trip id="bus109" type="bus_bus" depart="1015.35" departLane="best" departSpeed="max" from="213112343" to="-330164983#2"/>
    <trip id="bus110" type="bus_bus" depart="1024.66" departLane="best" from="-94694469#3" to="544176916#1"/>
    <trip id="bus111" type="bus_bus" depart="1033.98" departLane="best" from="328913048#4" to="-213109755#2"/>
    <trip id="bus112" type="bus_bus" depart="1043.29" departLane="best" departSpeed="max" from="-544316442#1" to="-35972290#3"/>
    <trip id="bus113" type="bus_bus" depart="1052.61" departLane="best" from="213112986#0" to="-328913968#2"/>
    <trip id="bus114" type="bus_bus" depart="1061.92" departLane="best" from="266145022#1" to="217699222#4"/>
    <trip id="bus115" type="bus_bus" depart="1071.24" departLane="best" from="-544316444#0" to="-103972671#3"/>
    <trip id="bus116" type="bus_bus" depart="1080.55" departLane="best" departSpeed="max" from="449159913#0" to="213112986#0"/>
    <trip id="bus118" type="bus_bus" depart="1099.18" departLane="best" departSpeed="max" from="-217699222#6" to="-255433926#3"/>
    <trip id="bus120" type="bus_bus" depart="1117.81" departLane="best" from="327350117" to="439860651"/>
    <trip id="bus121" type="bus_bus" depart="1127.13" departLane="best" from="447770033" to="-295319297#2"/>
    <trip id="bus122" type="bus_bus" depart="1136.44" departLane="best" departSpeed="max" from="-447770103" to="256727246#3"/>
    <trip id="bus123" type="bus_bus" depart="1145.76" departLane="best" from="-230154940#1" to="544316449#2"/>
    <trip id="bus124" type="bus_bus" depart="1155.07" departLane="best" from="330164984#0" to="94694447#5"/>
    <trip id="bus125" type="bus_bus" depart="1164.39" departLane="best" from="328894970#4" to="442050683#2"/>
    <trip id="bus126" type="bus_bus" depart="1173.70" departLane="best" departSpeed="max" from="-115786625#1" to="327350119#1"/>
    <trip id="bus127" type="bus_bus" depart="1183.02" departLane="best" from="-328913050#4" to="544316451"/>
    <trip id="bus128" type="bus_bus" depart="1192.33" departLane="best" from="328894966#3" to="439860653"/>
    <trip id="bus130" type="bus_bus" depart="1210.96" departLane="best" from="34995731#1" to="439860651"/>
    <trip id="bus131" type="bus_bus" depart="1220.28" departLane="best" from="-257123507#2" to="343182576"/>
    <trip id="bus132" type="bus_bus" depart="1229.59" departLane="best" from="327350116#6" to="-328894969#5"/>
    <trip id="bus134" type="bus_bus" depart="1248.23" departLane="best" from="217699222#1" to="115786616#3"/>
    <trip id="bus135" type="bus_bus" depart="1257.54" departLane="best" from="94694469#6" to="213109754#3"/>
    <trip id="bus136" type="bus_bus" depart="1266.86" departLane="best" departSpeed="max" from="544316506#0" to="-230154944#0"/>
    <trip id="bus137" type="bus_bus" depart="1276.17" departLane="best" from="935662906#2" to="-257146087#0"/>
    <trip id="bus138" type="bus_bus" depart="1285.49" departLane="best" from="8036320#3" to="-34995730#1"/>
    <trip id="bus139" type="bus_bus" depart="1294.80" departLane="best" from="257123507#2" to="-544316449#0"/>
    <trip id="bus140" type="bus_bus" depart="1304.12" departLane="best" departSpeed="max" from="-439860652" to="231543472#1"/>
    <trip id="bus142" type="bus_bus" depart="1322.75" departLane="best" from="-103770485#2" to="544316448"/>
    <trip id="bus143" type="bus_bus" depart="1332.06" departLane="best" from="123644946#2" to="32056136#5"/>
    <trip id="bus145" type="bus_bus" depart="1350.69" departLane="best" from="-35953176#4" to="-185740089#0"/>
    <trip id="bus146" type="bus_bus" depart="1360.01" departLane="best" departSpeed="max" from="-328894975#3" to="371719411"/>
    <trip id="bus147" type="bus_bus" depart="1369.32" departLane="best" from="257026303#0" to="-544176916#2"/>
    <trip id="bus148" type="bus_bus" depart="1378.64" departLane="best" from="-328894974#1" to="115786678#2"/>
    <trip id="bus149" type="bus_bus" depart="1387.95" departLane="best" from="-447027862#2" to="-52246109#1"/>
    <trip id="bus150" type="bus_bus" depart="1397.27" departLane="best" departSpeed="max" from="544316506#0" to="286896819#1"/>
    <trip id="bus151" type="bus_bus" depart="1406.58" departLane="best" departSpeed="max" from="449159912#0" to="256727244#2"/>
    <trip id="bus152" type="bus_bus" depart="1415.90" departLane="best" from="-328894969#4" to="217699220#1"/>
    <trip id="bus153" type="bus_bus" depart="1425.21" departLane="best" from="-103770485#0" to="-439860655#0"/>
    <trip id="bus154" type="bus_bus" depart="1434.53" departLane="best" departSpeed="max" from="-544316445#1" to="231543475#2"/>
    <trip id="bus155" type="bus_bus" depart="1443.84" departLane="best" departSpeed="max" from="230154944#0" to="163855462#1"/>
    <trip id="bus156" type="bus_bus" depart="1453.16" departLane="best" departSpeed="max" from="-544316449#2" to="-32056136#3"/>
    <trip id="bus158" type="bus_bus" depart="1471.79" departLane="best" from="327350117" to="-257123507#0"/>
    <trip id="bus159" type="bus_bus" depart="1481.10" departLane="best" departSpeed="max" from="-163855473#2" to="185740099#3"/>
    <trip id="bus160" type="bus_bus" depart="1490.42" departLane="best" from="213111958" to="-800638433#5"/>
    <trip id="bus161" type="bus_bus" depart="1499.73" departLane="best" from="328894975#1" to="328894969#4"/>
    <trip id="bus162" type="bus_bus" depart="1509.05" departLane="best" from="242614244#2" to="-328894969#0"/>
    <trip id="bus163" type="bus_bus" depart="1518.36" departLane="best" from="-256727245#4" to="-115786699"/>
    <trip id="bus164" type="bus_bus" depart="1527.68" departLane="best" departSpeed="max" from="328913049#0" to="-185740095#2"/>
    <trip id="bus166" type="bus_bus" depart="1546.31" departLane="best" from="-256727227#1" to="29252063#9"/>
    <trip id="bus167" type="bus_bus" depart="1555.62" departLane="best" from="-94694474#2" to="-328908575#0"/>
    <trip id="bus168" type="bus_bus" depart="1564.94" departLane="best" departSpeed="max" from="230154944#0" to="-103770491#4"/>
    <trip id="bus169" type="bus_bus" depart="1574.25" departLane="best" from="-255433926#3" to="803257999#2"/>
    <trip id="bus172" type="bus_bus" depart="1602.20" departLane="best" from="-552534223#7" to="330164982#2"/>
    <trip id="bus173" type="bus_bus" depart="1611.51" departLane="best" from="231543475#1" to="94874369#3"/>
    <trip id="bus174" type="bus_bus" depart="1620.83" departLane="best" departSpeed="max" from="439860650" to="256727235#5"/>
    <trip id="bus175" type="bus_bus" depart="1630.14" departLane="best" from="257026299#2" to="185740089#1"/>
    <trip id="bus176" type="bus_bus" depart="1639.46" departLane="best" from="447027862#0" to="328894966#2"/>
    <trip id="bus177" type="bus_bus" depart="1648.77" departLane="best" departSpeed="max" from="-861860030" to="-328913050#5"/>
    <trip id="bus178" type="bus_bus" depart="1658.09" departLane="best" from="-286363350#0" to="257123496"/>
    <trip id="bus179" type="bus_bus" depart="1667.41" departLane="best" from="213106212" to="-35953176#4"/>
    <trip id="bus180" type="bus_bus" depart="1676.72" departLane="best" departSpeed="max" from="-163855466" to="-392565518#2"/>
    <trip id="bus181" type="bus_bus" depart="1686.04" departLane="best" from="123644946#5" to="-256727226#2"/>
    <trip id="bus182" type="bus_bus" depart="1695.35" departLane="best" departSpeed="max" from="-257146087#1" to="29252063#9"/>
    <trip id="bus183" type="bus_bus" depart="1704.67" departLane="best" from="-531659284#1" to="-29252090#1"/>
    <trip id="bus184" type="bus_bus" depart="1713.98" departLane="best" from="328913968#1" to="328894975#2"/>
    <trip id="bus185" type="bus_bus" depart="1723.30" departLane="best" departSpeed="max" from="-439860651" to="-103770499#1"/>
    <trip id="bus187" type="bus_bus" depart="1741.93" departLane="best" from="328913050#3" to="800176349#1"/>
    <trip id="bus188" type="bus_bus" depart="1751.24" departLane="best" from="-544316440#1" to="328894966#5"/>
    <trip id="bus189" type="bus_bus" depart="1760.56" departLane="best" from="123644951#4" to="256727224#3"/>
    <trip id="bus190" type="bus_bus" depart="1769.87" departLane="best" from="-257123503" to="-32056140#3"/>
    <trip id="bus191" type="bus_bus" depart="1779.19" departLane="best" departSpeed="max" from="-544316447#2" to="-123644946#1"/>
    <trip id="bus192" type="bus_bus" depart="1788.50" departLane="best" from="-328913968#2" to="286896819#1"/>
    <trip id="bus193" type="bus_bus" depart="1797.82" departLane="best" from="-803257999#0" to="-255433926#3"/>
    <trip id="bus194" type="bus_bus" depart="1807.13" departLane="best" departSpeed="max" from="-115786647" to="257123507#2"/>
    <trip id="bus195" type="bus_bus" depart="1816.45" departLane="best" from="-213111034#0" to="163855457#1"/>
    <trip id="bus197" type="bus_bus" depart="1835.08" departLane="best" from="-257026298#0" to="-552534223#4"/>
    <trip id="bus198" type="bus_bus" depart="1844.39" departLane="best" from="29252057#6" to="103770485#2"/>
    <trip id="bus201" type="bus_bus" depart="1872.34" departLane="best" from="-115786610#0" to="213109755#2"/>
    <trip id="bus203" type="bus_bus" depart="1890.97" departLane="best" from="-115786616#0" to="-256727249#2"/>
    <trip id="bus206" type="bus_bus" depart="1918.91" departLane="best" from="256727244#5" to="328894975#2"/>
    <trip id="bus207" type="bus_bus" depart="1928.23" departLane="best" from="-231543468#1" to="256727227#1"/>
    <trip id="bus208" type="bus_bus" depart="1937.54" departLane="best" from="28507755#1" to="-230154944#0"/>
    <trip id="bus210" type="bus_bus" depart="1956.17" departLane="best" departSpeed="max" from="803188454#0" to="115786610#1"/>
    <trip id="bus211" type="bus_bus" depart="1965.49" departLane="best" departSpeed="max" from="256983320#0" to="-185740099#3"/>
    <trip id="bus212" type="bus_bus" depart="1974.80" departLane="best" from="256727226#1" to="256727249#4"/>
    <trip id="bus213" type="bus_bus" depart="1984.12" departLane="best" departSpeed="max" from="328913049#0" to="256469400"/>
    <trip id="bus214" type="bus_bus" depart="1993.43" departLane="best" from="32056136#1" to="-92837377"/>
    <trip id="bus216" type="bus_bus" depart="2012.06" departLane="best" from="256727248#1" to="160363117#1"/>
    <trip id="bus217" type="bus_bus" depart="2021.38" departLane="best" from="123644946#2" to="163855473#2"/>
    <trip id="bus218" type="bus_bus" depart="2030.69" departLane="best" from="36747900#0" to="-328908575#0"/>
    <trip id="bus219" type="bus_bus" depart="2040.01" departLane="best" from="-800638433#3" to="256727235#3"/>
    <trip id="bus220" type="bus_bus" depart="2049.32" departLane="best" from="-392565518#2" to="-123644946#0"/>
    <trip id="bus221" type="bus_bus" depart="2058.64" departLane="best" departSpeed="max" from="328913049#0" to="-257146092#1"/>
    <trip id="bus222" type="bus_bus" depart="2067.95" departLane="best" departSpeed="max" from="-343182575#3" to="442036640"/>
    <trip id="bus223" type="bus_bus" depart="2077.27" departLane="best" from="256727245#4" to="-35972290#3"/>
    <trip id="bus225" type="bus_bus" depart="2095.90" departLane="best" departSpeed="max" from="-163855473#2" to="32056136#5"/>
    <trip id="bus226" type="bus_bus" depart="2105.22" departLane="best" from="-94694469#3" to="328894971#1"/>
    <trip id="bus227" type="bus_bus" depart="2114.53" departLane="best" from="256727226#1" to="257131829#4"/>
    <trip id="bus228" type="bus_bus" depart="2123.85" departLane="best" from="-94694469#6" to="328913049#1"/>
    <trip id="bus229" type="bus_bus" depart="2133.16" departLane="best" departSpeed="max" from="-163855475#3" to="-328894966#0"/>
    <trip id="bus230" type="bus_bus" depart="2142.48" departLane="best" from="115786684#1" to="139246411#1"/>
    <trip id="bus231" type="bus_bus" depart="2151.79" departLane="best" from="256727246#3" to="-34995731#3"/>
    <trip id="bus233" type="bus_bus" depart="2170.42" departLane="best" departSpeed="max" from="117737738" to="328894974#4"/>
    <trip id="bus234" type="bus_bus" depart="2179.74" departLane="best" departSpeed="max" from="-256469400" to="-32056140#0"/>
    <trip id="bus235" type="bus_bus" depart="2189.05" departLane="best" from="-94694447#4" to="326493568#1"/>
    <trip id="bus236" type="bus_bus" depart="2198.37" departLane="best" departSpeed="max" from="94694469#0" to="211105142#2"/>
    <trip id="bus237" type="bus_bus" depart="2207.68" departLane="best" departSpeed="max" from="-32056136#5" to="-217699220#0"/>
    <trip id="bus238" type="bus_bus" depart="2217.00" departLane="best" from="-256727226#5" to="-328894969#5"/>
    <trip id="bus239" type="bus_bus" depart="2226.31" departLane="best" from="-256394047#2" to="-103972673#0"/>
    <trip id="bus240" type="bus_bus" depart="2235.63" departLane="best" departSpeed="max" from="117737738" to="-35953176#4"/>
    <trip id="bus241" type="bus_bus" depart="2244.94" departLane="best" from="94694459#1" to="217699222#6"/>
    <trip id="bus242" type="bus_bus" depart="2254.26" departLane="best" from="34995730#1" to="163855475#2"/>
    <trip id="bus243" type="bus_bus" depart="2263.57" departLane="best" from="34995731#2" to="231543468#4"/>
    <trip id="bus244" type="bus_bus" depart="2272.89" departLane="best" from="-803257999#3" to="161761054"/>
    <trip id="bus245" type="bus_bus" depart="2282.20" departLane="best" departSpeed="max" from="-256418512#2" to="-161279831#1"/>
    <trip id="bus246" type="bus_bus" depart="2291.52" departLane="best" departSpeed="max" from="29252063#0" to="256727226#3"/>
    <trip id="bus247" type="bus_bus" depart="2300.83" departLane="best" from="103972673#0" to="162974880#12"/>
    <trip id="bus248" type="bus_bus" depart="2310.15" departLane="best" from="-544316450" to="439860651"/>
    <trip id="bus249" type="bus_bus" depart="2319.46" departLane="best" from="211105142#0" to="256727235#2"/>
    <trip id="bus251" type="bus_bus" depart="2338.09" departLane="best" from="-256727249#4" to="-295319297#3"/>
    <trip id="bus252" type="bus_bus" depart="2347.41" departLane="best" from="230154944#5" to="-256983320#0"/>
    <trip id="bus253" type="bus_bus" depart="2356.72" departLane="best" from="-254257814" to="-185740099#2"/>
    <trip id="bus254" type="bus_bus" depart="2366.04" departLane="best" from="-103770485#4" to="162974880#12"/>
    <trip id="bus255" type="bus_bus" depart="2375.35" departLane="best" from="163855475#1" to="-447770105"/>
    <trip id="bus256" type="bus_bus" depart="2384.67" departLane="best" departSpeed="max" from="-257146087#1" to="295319297#3"/>
    <trip id="bus257" type="bus_bus" depart="2393.98" departLane="best" from="256727246#3" to="162974880#5"/>
    <trip id="bus258" type="bus_bus" depart="2403.30" departLane="best" departSpeed="max" from="32056140#0" to="256727248#1"/>
    <trip id="bus259" type="bus_bus" depart="2412.61" departLane="best" from="230154944#6" to="544316453#1"/>
    <trip id="bus260" type="bus_bus" depart="2421.93" departLane="best" from="-544316443#0" to="213111034#2"/>
    <trip id="bus262" type="bus_bus" depart="2440.56" departLane="best" departSpeed="max" from="-230154945#5" to="-544316443#1"/>
    <trip id="bus263" type="bus_bus" depart="2449.87" departLane="best" from="28507755#3" to="230154945#5"/>
    <trip id="bus264" type="bus_bus" depart="2459.19" departLane="best" departSpeed="max" from="-326493568#1" to="-231543472#0"/>
    <trip id="bus265" type="bus_bus" depart="2468.50" departLane="best" from="256727224#3" to="29252080"/>
    <trip id="bus266" type="bus_bus" depart="2477.82" departLane="best" from="552534223#1" to="163855476#8"/>
    <trip id="bus267" type="bus_bus" depart="2487.14" departLane="best" from="-123644951#1" to="160244944#9"/>
    <trip id="bus269" type="bus_bus" depart="2505.77" departLane="best" from="328910905#1" to="231543472#0"/>
    <trip id="bus271" type="bus_bus" depart="2524.40" departLane="best" from="242614244#1" to="-34995731#1"/>
    <trip id="bus272" type="bus_bus" depart="2533.71" departLane="best" from="540335839#4" to="-257146090#0"/>
    <trip id="bus273" type="bus_bus" depart="2543.03" departLane="best" from="-94694469#8" to="-213109755#1"/>
    <trip id="bus274" type="bus_bus" depart="2552.34" departLane="best" departSpeed="max" from="-343182577" to="-800638433#2"/>
    <trip id="bus275" type="bus_bus" depart="2561.66" departLane="best" departSpeed="max" from="242614244#0" to="439860651"/>
    <trip id="bus276" type="bus_bus" depart="2570.97" departLane="best" from="-328913049#1" to="29252063#9"/>
    <trip id="bus277" type="bus_bus" depart="2580.29" departLane="best" departSpeed="max" from="-326493568#1" to="583510303#0"/>
    <trip id="bus278" type="bus_bus" depart="2589.60" departLane="best" from="328894971#2" to="217699222#1"/>
    <trip id="bus279" type="bus_bus" depart="2598.92" departLane="best" from="-552534223#4" to="-544316449#1"/>
    <trip id="bus280" type="bus_bus" depart="2608.23" departLane="best" departSpeed="max" from="-447027862#3" to="185740099#1"/>
    <trip id="bus281" type="bus_bus" depart="2617.55" departLane="best" from="99596852#0" to="268230301"/>
    <trip id="bus282" type="bus_bus" depart="2626.86" departLane="best" departSpeed="max" from="-256469400" to="-94694474#0"/>
    <trip id="bus283" type="bus_bus" depart="2636.18" departLane="best" from="28949622#2" to="256727249#1"/>
    <trip id="bus284" type="bus_bus" depart="2645.49" departLane="best" from="123644951#9" to="544316449#2"/>
    <trip id="bus285" type="bus_bus" depart="2654.81" departLane="best" from="-544316449#0" to="29252080"/>
    <trip id="bus286" type="bus_bus" depart="2664.12" departLane="best" departSpeed="max" from="-211105142#7" to="935662922#1"/>