<?xml version="1.0" encoding="UTF-8"?>

<!-- generated on 2021-12-12 04:55:25 by Eclipse SUMO duarouter Version v1_11_0+0500-2dacdf4c114
<configuration xmlns:xsi="http://www.w3.org/2001/XMLSchema-instance" xsi:noNamespaceSchemaLocation="http://sumo.dlr.de/xsd/duarouterConfiguration.xsd">

    <input>
        <net-file value="/home/nbiottalk/Traffic_Simulation/sumo/tools/2021-12-12-04-54-57/osm.net.xml"/>
        <route-files value="/home/nbiottalk/Traffic_Simulation/sumo/tools/2021-12-12-04-54-57/osm.passenger.trips.xml"/>
    </input>

    <output>
        <output-file value="/home/nbiottalk/Traffic_Simulation/sumo/tools/2021-12-12-04-54-57/osm.passenger.trips.xml.tmp"/>
        <write-trips value="true"/>
    </output>

    <time>
        <begin value="0"/>
        <end value="3600"/>
    </time>

    <report>
        <no-warnings value="true"/>
        <ignore-errors value="true"/>
        <no-step-log value="true"/>
    </report>

</configuration>
-->

<routes xmlns:xsi="http://www.w3.org/2001/XMLSchema-instance" xsi:noNamespaceSchemaLocation="http://sumo.dlr.de/xsd/routes_file.xsd">
    <vType id="veh_passenger" vClass="passenger"/>
    <trip id="veh0" type="veh_passenger" depart="0.00" departLane="best" departSpeed="max" from="242614244#0" to="-123644946#0"/>
    <trip id="veh1" type="veh_passenger" depart="3.11" departLane="best" departSpeed="max" from="-328894966#5" to="-328894974#4"/>
    <trip id="veh2" type="veh_passenger" depart="6.21" departLane="best" from="439860655#0" to="-213111034#0"/>
    <trip id="veh3" type="veh_passenger" depart="9.32" departLane="best" from="-552534223#3" to="-123644951#10"/>
    <trip id="veh4" type="veh_passenger" depart="12.42" departLane="best" departSpeed="max" from="-268230301" to="213109754#2"/>
    <trip id="veh5" type="veh_passenger" depart="15.53" departLane="best" departSpeed="max" from="-115786647" to="-295319297#2"/>
    <trip id="veh6" type="veh_passenger" depart="18.63" departLane="best" departSpeed="max" from="-268230301" to="256727235#2"/>
    <trip id="veh7" type="veh_passenger" depart="21.74" departLane="best" from="328894974#4" to="295319297#2"/>
    <trip id="veh8" type="veh_passenger" depart="24.84" departLane="best" from="-35972290#3" to="-257026307"/>
    <trip id="veh9" type="veh_passenger" depart="27.95" departLane="best" from="800638433#4" to="-94694469#8"/>
    <trip id="veh10" type="veh_passenger" depart="31.05" departLane="best" departSpeed="max" from="-185740092#1" to="-217699222#5"/>
    <trip id="veh11" type="veh_passenger" depart="34.16" departLane="best" from="328913050#0" to="256727245#2"/>
    <trip id="veh12" type="veh_passenger" depart="37.26" departLane="best" from="328906736#0" to="327350117"/>
    <trip id="veh13" type="veh_passenger" depart="40.37" departLane="best" from="160363117#0" to="935662906#0"/>
    <trip id="veh15" type="veh_passenger" depart="46.58" departLane="best" departSpeed="max" from="328908575#0" to="257026298#2"/>
    <trip id="veh16" type="veh_passenger" depart="49.68" departLane="best" from="330164983#2" to="256727226#1"/>
    <trip id="veh18" type="veh_passenger" depart="55.89" departLane="best" from="-286363350#0" to="-544316443#0"/>
    <trip id="veh19" type="veh_passenger" depart="59.00" departLane="best" departSpeed="max" from="-163855474#1" to="-328910905#1"/>
    <trip id="veh20" type="veh_passenger" depart="62.10" departLane="best" from="-185740100#3" to="-466278292"/>
    <trip id="veh21" type="veh_passenger" depart="65.21" departLane="best" departSpeed="max" from="242614244#0" to="103972672#0"/>
    <trip id="veh22" type="veh_passenger" depart="68.31" departLane="best" departSpeed="max" from="-439860656#1" to="-328894966#2"/>
    <trip id="veh23" type="veh_passenger" depart="71.42" departLane="best" from="-326493568#0" to="544316452#1"/>
    <trip id="veh24" type="veh_passenger" depart="74.52" departLane="best" from="242640352#0" to="256727247#3"/>
    <trip id="veh25" type="veh_passenger" depart="77.63" departLane="best" from="-256727224#3" to="327350116#7"/>
    <trip id="veh26" type="veh_passenger" depart="80.73" departLane="best" from="99596852#0" to="266145022#0"/>
    <trip id="veh27" type="veh_passenger" depart="83.84" departLane="best" from="163855464#0" to="29252063#9"/>
    <trip id="veh28" type="veh_passenger" depart="86.94" departLane="best" from="328913048#5" to="328908574#1"/>
    <trip id="veh30" type="veh_passenger" depart="93.15" departLane="best" from="-330164983#2" to="-375910967#7"/>
    <trip id="veh31" type="veh_passenger" depart="96.26" departLane="best" from="-257131830#5" to="552534223#5"/>
    <trip id="veh32" type="veh_passenger" depart="99.36" departLane="best" from="36691118#1" to="-803188454#0"/>
    <trip id="veh34" type="veh_passenger" depart="105.57" departLane="best" from="540335839#10" to="163855473#2"/>
    <trip id="veh35" type="veh_passenger" depart="108.68" departLane="best" departSpeed="max" from="-32056136#5" to="-328913050#8"/>
    <trip id="veh36" type="veh_passenger" depart="111.78" departLane="best" from="163855475#0" to="-36691118#0"/>
    <trip id="veh38" type="veh_passenger" depart="117.99" departLane="best" from="-544316444#3" to="-328894970#8"/>
    <trip id="veh39" type="veh_passenger" depart="121.10" departLane="best" from="99596864#1" to="213109755#2"/>
    <trip id="veh41" type="veh_passenger" depart="127.31" departLane="best" from="328894969#0" to="161763715"/>
    <trip id="veh42" type="veh_passenger" depart="130.41" departLane="best" departSpeed="max" from="-163855462#1" to="123644946#0"/>
    <trip id="veh43" type="veh_passenger" depart="133.52" departLane="best" from="99596860#9" to="230154940#3"/>
    <trip id="veh44" type="veh_passenger" depart="136.62" departLane="best" departSpeed="max" from="856341809#0" to="392565518#0"/>
    <trip id="veh45" type="veh_passenger" depart="139.73" departLane="best" departSpeed="max" from="-103972671#7" to="327350116#4"/>
    <trip id="veh46" type="veh_passenger" depart="142.83" departLane="best" from="256727244#2" to="230154945#5"/>
    <trip id="veh47" type="veh_passenger" depart="145.94" departLane="best" from="-326493568#0" to="266145023#0"/>
    <trip id="veh48" type="veh_passenger" depart="149.04" departLane="best" from="-211105144#1" to="162974880#9"/>
    <trip id="veh49" type="veh_passenger" depart="152.15" departLane="best" from="-94694469#6" to="800176349#1"/>
    <trip id="veh50" type="veh_passenger" depart="155.25" departLane="best" from="123644951#11" to="-28507755#1"/>
    <trip id="veh51" type="veh_passenger" depart="158.36" departLane="best" from="540335839#1" to="439860653"/>
    <trip id="veh52" type="veh_passenger" depart="161.46" departLane="best" from="-328910905#2" to="257146092#1"/>
    <trip id="veh53" type="veh_passenger" depart="164.57" departLane="best" from="217699222#4" to="-257026298#2"/>
    <trip id="veh54" type="veh_passenger" depart="167.67" departLane="best" from="295319297#2" to="231543468#1"/>
    <trip id="veh55" type="veh_passenger" depart="170.78" departLane="best" from="327350116#3" to="230154944#1"/>
    <trip id="veh56" type="veh_passenger" depart="173.88" departLane="best" from="-103770485#1" to="-92837377"/>
    <trip id="veh57" type="veh_passenger" depart="176.99" departLane="best" from="-115786616#3" to="544316447#2"/>
    <trip id="veh58" type="veh_passenger" depart="180.09" departLane="best" from="-328913050#3" to="-163855471#0"/>
    <trip id="veh59" type="veh_passenger" depart="183.20" departLane="best" from="36747900#0" to="556926006"/>
    <trip id="veh60" type="veh_passenger" depart="186.30" departLane="best" from="-184798057#0" to="185740099#0"/>
    <trip id="veh61" type="veh_passenger" depart="189.41" departLane="best" departSpeed="max" from="-163855464#2" to="328894975#2"/>
    <trip id="veh62" type="veh_passenger" depart="192.51" departLane="best" from="29548788#3" to="-256727226#1"/>
    <trip id="veh64" type="veh_passenger" depart="198.72" departLane="best" departSpeed="max" from="-32056136#5" to="439860654"/>
    <trip id="veh65" type="veh_passenger" depart="201.83" departLane="best" from="-552534223#5" to="-328894969#1"/>
    <trip id="veh66" type="veh_passenger" depart="204.93" departLane="best" from="160363127#1" to="327350118"/>
    <trip id="veh67" type="veh_passenger" depart="208.04" departLane="best" departSpeed="max" from="-257123496" to="-800638433#0"/>
    <trip id="veh68" type="veh_passenger" depart="211.14" departLane="best" from="99596860#7" to="28507755#3"/>
    <trip id="veh70" type="veh_passenger" depart="217.35" departLane="best" from="-213111034#1" to="-328906745#0"/>
    <trip id="veh71" type="veh_passenger" depart="220.46" departLane="best" from="-35953176#3" to="256727235#2"/>
    <trip id="veh73" type="veh_passenger" depart="226.67" departLane="best" departSpeed="max" from="-163855466" to="257131829#2"/>
    <trip id="veh75" type="veh_passenger" depart="232.88" departLane="best" from="330164982#4" to="-185740099#3"/>
    <trip id="veh77" type="veh_passenger" depart="239.09" departLane="best" from="-257146088" to="-256727227#1"/>
    <trip id="veh78" type="veh_passenger" depart="242.19" departLane="best" from="544316448" to="256418512#2"/>
    <trip id="veh79" type="veh_passenger" depart="245.30" departLane="best" from="103770491#1" to="328910905#2"/>
    <trip id="veh80" type="veh_passenger" depart="248.40" departLane="best" from="328906736#0" to="-29252057#10"/>
    <trip id="veh81" type="veh_passenger" depart="251.51" departLane="best" from="-185740095#3" to="162974880#13"/>
    <trip id="veh82" type="veh_passenger" depart="254.61" departLane="best" from="-552534223#6" to="163855475#3"/>
    <trip id="veh84" type="veh_passenger" depart="260.82" departLane="best" departSpeed="max" from="-544316445#1" to="-94694474#4"/>
    <trip id="veh85" type="veh_passenger" depart="263.93" departLane="best" from="-256727249#5" to="163855464#2"/>
    <trip id="veh86" type="veh_passenger" depart="267.03" departLane="best" from="-552534223#3" to="-52246109#0"/>
    <trip id="veh87" type="veh_passenger" depart="270.14" departLane="best" from="-29252057#8" to="544316444#3"/>
    <trip id="veh88" type="veh_passenger" depart="273.24" departLane="best" from="-92837377" to="392565518#1"/>
    <trip id="veh89" type="veh_passenger" depart="276.35" departLane="best" from="162974880#14" to="-161761054"/>
    <trip id="veh90" type="veh_passenger" depart="279.45" departLane="best" from="99596871#2" to="34995731#4"/>
    <trip id="veh91" type="veh_passenger" depart="282.56" departLane="best" from="328913050#1" to="-257131830#1"/>
    <trip id="veh92" type="veh_passenger" depart="285.66" departLane="best" from="115786616#1" to="-328894969#4"/>
    <trip id="veh93" type="veh_passenger" depart="288.77" departLane="best" departSpeed="max" from="-447027862#3" to="94694469#9"/>
    <trip id="veh94" type="veh_passenger" depart="291.87" departLane="best" from="-32056140#1" to="328910905#1"/>
    <trip id="veh95" type="veh_passenger" depart="294.98" departLane="best" from="-94694469#8" to="161763718#1"/>
    <trip id="veh96" type="veh_passenger" depart="298.08" departLane="best" from="163855463#1" to="327350116#2"/>
    <trip id="veh97" type="veh_passenger" depart="301.19" departLane="best" from="-255433926#0" to="-544316451"/>
    <trip id="veh98" type="veh_passenger" depart="304.29" departLane="best" from="8036324#2" to="256727226#2"/>
    <trip id="veh99" type="veh_passenger" depart="307.40" departLane="best" from="161279850" to="328894970#1"/>
    <trip id="veh100" type="veh_passenger" depart="310.50" departLane="best" departSpeed="max" from="-163855457#1" to="256727234#1"/>
    <trip id="veh101" type="veh_passenger" depart="313.61" departLane="best" from="123644951#4" to="371719411"/>
    <trip id="veh102" type="veh_passenger" depart="316.71" departLane="best" from="-255433926#5" to="8036320#2"/>
    <trip id="veh103" type="veh_passenger" depart="319.82" departLane="best" from="213109754#0" to="29252063#2"/>
    <trip id="veh105" type="veh_passenger" depart="326.03" departLane="best" departSpeed="max" from="439860650" to="-328913050#8"/>
    <trip id="veh106" type="veh_passenger" depart="329.13" departLane="best" from="213106212" to="257026299#2"/>
    <trip id="veh107" type="veh_passenger" depart="332.24" departLane="best" departSpeed="max" from="-544316507" to="256727234#1"/>
    <trip id="veh108" type="veh_passenger" depart="335.34" departLane="best" from="160244944#14" to="544316449#2"/>
    <trip id="veh109" type="veh_passenger" depart="338.45" departLane="best" from="-257123507#1" to="326493568#1"/>
    <trip id="veh111" type="veh_passenger" depart="344.66" departLane="best" from="256727234#1" to="-544316454"/>
    <trip id="veh112" type="veh_passenger" depart="347.76" departLane="best" from="-343182575#2" to="328894970#7"/>
    <trip id="veh113" type="veh_passenger" depart="350.87" departLane="best" departSpeed="max" from="-163855467" to="163855473#2"/>
    <trip id="veh114" type="veh_passenger" depart="353.97" departLane="best" departSpeed="max" from="-163855467" to="-328894969#3"/>
    <trip id="veh115" type="veh_passenger" depart="357.08" departLane="best" from="-32056140#1" to="544316449#2"/>
    <trip id="veh116" type="veh_passenger" depart="360.18" departLane="best" departSpeed="max" from="-439860656#1" to="-257074755#0"/>
    <trip id="veh117" type="veh_passenger" depart="363.29" departLane="best" from="328910905#4" to="302120681"/>
    <trip id="veh119" type="veh_passenger" depart="369.50" departLane="best" from="255433926#1" to="-103972671#2"/>
    <trip id="veh120" type="veh_passenger" depart="372.60" departLane="best" from="328906745#7" to="-544316453#2"/>
    <trip id="veh121" type="veh_passenger" depart="375.71" departLane="best" from="256727224#2" to="544316454"/>
    <trip id="veh122" type="veh_passenger" depart="378.81" departLane="best" departSpeed="max" from="-230154939" to="-255433926#0"/>
    <trip id="veh124" type="veh_passenger" depart="385.02" departLane="best" from="-328894966#3" to="256727245#5"/>
    <trip id="veh125" type="veh_passenger" depart="388.13" departLane="best" from="257131830#4" to="-32056140#0"/>
    <trip id="veh126" type="veh_passenger" depart="391.23" departLane="best" departSpeed="max" from="242614244#0" to="-36691118#1"/>
    <trip id="veh127" type="veh_passenger" depart="394.34" departLane="best" departSpeed="max" from="328913049#0" to="-217699220#0"/>
    <trip id="veh128" type="veh_passenger" depart="397.44" departLane="best" from="-552534223#6" to="-447770105"/>
    <trip id="veh129" type="veh_passenger" depart="400.55" departLane="best" departSpeed="max" from="242614244#0" to="-36691118#0"/>
    <trip id="veh131" type="veh_passenger" depart="406.76" departLane="best" departSpeed="max" from="-800176349#1" to="-103972671#5"/>
    <trip id="veh132" type="veh_passenger" depart="409.86" departLane="best" departSpeed="max" from="-163855473#2" to="442036640"/>
    <trip id="veh133" type="veh_passenger" depart="412.97" departLane="best" departSpeed="max" from="449159913#0" to="231543475#2"/>
    <trip id="veh134" type="veh_passenger" depart="416.08" departLane="best" from="328910905#5" to="256727227#1"/>
    <trip id="veh135" type="veh_passenger" depart="419.18" departLane="best" from="-231543468#0" to="-256727226#1"/>
    <trip id="veh137" type="veh_passenger" depart="425.39" departLane="best" from="328894970#10" to="392565518#0"/>
    <trip id="veh138" type="veh_passenger" depart="428.50" departLane="best" departSpeed="max" from="449159912#0" to="-328894966#3"/>
    <trip id="veh139" type="veh_passenger" depart="431.60" departLane="best" from="-29252057#7" to="-230154941#1"/>
    <trip id="veh140" type="veh_passenger" depart="434.71" departLane="best" from="327350116#4" to="442050683#2"/>
    <trip id="veh141" type="veh_passenger" depart="437.81" departLane="best" departSpeed="max" from="-544316447#2" to="257026303#1"/>
    <trip id="veh142" type="veh_passenger" depart="440.92" departLane="best" from="-254257814" to="544316447#2"/>
    <trip id="veh143" type="veh_passenger" depart="444.02" departLane="best" from="328906744#0" to="442036640"/>
    <trip id="veh144" type="veh_passenger" depart="447.13" departLane="best" departSpeed="max" from="-115786647" to="328893249#3"/>
    <trip id="veh145" type="veh_passenger" depart="450.23" departLane="best" from="-34995730#3" to="544316448"/>
    <trip id="veh146" type="veh_passenger" depart="453.34" departLane="best" from="328894972#1" to="439860651"/>
    <trip id="veh147" type="veh_passenger" depart="456.44" departLane="best" from="328906744#0" to="-375910967#5"/>
    <trip id="veh148" type="veh_passenger" depart="459.55" departLane="best" from="328893249#3" to="-230154944#5"/>
    <trip id="veh149" type="veh_passenger" depart="462.65" departLane="best" from="-28507753#2" to="343182575#2"/>
    <trip id="veh150" type="veh_passenger" depart="465.76" departLane="best" from="-99596852#0" to="-552534223#1"/>
    <trip id="veh151" type="veh_passenger" depart="468.86" departLane="best" from="328894970#1" to="-328906745#6"/>
    <trip id="veh152" type="veh_passenger" depart="471.97" departLane="best" departSpeed="max" from="-115786625#1" to="-29252057#8"/>
    <trip id="veh154" type="veh_passenger" depart="478.18" departLane="best" from="8036324#1" to="-52246109#1"/>
    <trip id="veh155" type="veh_passenger" depart="481.28" departLane="best" from="242614244#2" to="160244944#14"/>
    <trip id="veh156" type="veh_passenger" depart="484.39" departLane="best" from="94694469#2" to="230154945#5"/>
    <trip id="veh157" type="veh_passenger" depart="487.49" departLane="best" departSpeed="max" from="856341809#0" to="-28507754#2"/>
    <trip id="veh158" type="veh_passenger" depart="490.60" departLane="best" from="803257999#3" to="-375910967#3"/>
    <trip id="veh159" type="veh_passenger" depart="493.70" departLane="best" departSpeed="max" from="-211105142#7" to="162974880#9"/>
    <trip id="veh160" type="veh_passenger" depart="496.81" departLane="best" from="28507754#3" to="-800638433#5"/>
    <trip id="veh161" type="veh_passenger" depart="499.91" departLane="best" from="217699220#2" to="213111034#1"/>
    <trip id="veh163" type="veh_passenger" depart="506.12" departLane="best" from="-295319297#1" to="32056136#5"/>
    <trip id="veh164" type="veh_passenger" depart="509.23" departLane="best" from="-103770485#3" to="544316445#1"/>
    <trip id="veh165" type="veh_passenger" depart="512.33" departLane="best" from="160363127#0" to="327350116#3"/>
    <trip id="veh166" type="veh_passenger" depart="515.44" departLane="best" departSpeed="max" from="-439860653" to="-185740099#1"/>
    <trip id="veh167" type="veh_passenger" depart="518.54" departLane="best" from="256727224#3" to="-94694469#0"/>
    <trip id="veh168" type="veh_passenger" depart="521.65" departLane="best" departSpeed="max" from="257146087#0" to="-544316454"/>
    <trip id="veh169" type="veh_passenger" depart="524.75" departLane="best" from="-217699220#2" to="161279850"/>
    <trip id="veh170" type="veh_passenger" depart="527.86" departLane="best" from="544316453#2" to="29252063#4"/>
    <trip id="veh171" type="veh_passenger" depart="530.96" departLane="best" from="449159912#1" to="257026298#0"/>
    <trip id="veh173" type="veh_passenger" depart="537.17" departLane="best" from="-103770485#0" to="-544316440#2"/>
    <trip id="veh174" type="veh_passenger" depart="540.28" departLane="best" from="-800638433#0" to="256727226#3"/>
    <trip id="veh175" type="veh_passenger" depart="543.38" departLane="best" from="-888881825" to="-328894969#4"/>
    <trip id="veh177" type="veh_passenger" depart="549.59" departLane="best" from="328894970#10" to="-257146087#0"/>
    <trip id="veh178" type="veh_passenger" depart="552.70" departLane="best" departSpeed="max" from="-163855475#3" to="213112986#1"/>
    <trip id="veh179" type="veh_passenger" depart="555.80" departLane="best" departSpeed="max" from="242614244#0" to="-94694469#6"/>
    <trip id="veh180" type="veh_passenger" depart="558.91" departLane="best" from="328908572#1" to="328894970#6"/>
    <trip id="veh181" type="veh_passenger" depart="562.01" departLane="best" from="256727234#2" to="-328906745#0"/>
    <trip id="veh182" type="veh_passenger" depart="565.12" departLane="best" from="328913050#3" to="-185740100#3"/>
    <trip id="veh183" type="veh_passenger" depart="568.22" departLane="best" from="-544316453#1" to="257131827"/>
    <trip id="veh184" type="veh_passenger" depart="571.33" departLane="best" from="-257026298#1" to="29252090#3"/>
    <trip id="veh185" type="veh_passenger" depart="574.43" departLane="best" departSpeed="max" from="117737738" to="-328913050#5"/>
    <trip id="veh186" type="veh_passenger" depart="577.54" departLane="best" from="255433926#5" to="-103972663#0"/>
    <trip id="veh187" type="veh_passenger" depart="580.64" departLane="best" from="29252063#3" to="328906745#2"/>
    <trip id="veh188" type="veh_passenger" depart="583.75" departLane="best" from="-211105142#4" to="162054376#1"/>
    <trip id="veh190" type="veh_passenger" depart="589.96" departLane="best" from="-29252057#7" to="36747900#3"/>
    <trip id="veh191" type="veh_passenger" depart="593.06" departLane="best" from="-94694474#1" to="328913050#5"/>
    <trip id="veh192" type="veh_passenger" depart="596.17" departLane="best" from="256727226#2" to="94874369#1"/>
    <trip id="veh194" type="veh_passenger" depart="602.38" departLane="best" departSpeed="max" from="439860650" to="256727249#5"/>
    <trip id="veh195" type="veh_passenger" depart="605.48" departLane="best" departSpeed="max" from="257146087#0" to="213109754#1"/>
    <trip id="veh197" type="veh_passenger" depart="611.69" departLane="best" departSpeed="max" from="449159912#0" to="328894966#5"/>
    <trip id="veh198" type="veh_passenger" depart="614.80" departLane="best" from="103770491#4" to="-35953176#4"/>
    <trip id="veh199" type="veh_passenger" depart="617.90" departLane="best" from="-29252057#10" to="257146087#1"/>
    <trip id="veh200" type="veh_passenger" depart="621.01" departLane="best" from="29548788#3" to="217699222#5"/>
    <trip id="veh201" type="veh_passenger" depart="624.11" departLane="best" from="231543468#0" to="-447027862#2"/>
    <trip id="veh202" type="veh_passenger" depart="627.22" departLane="best" departSpeed="max" from="-163855473#2" to="-544316440#0"/>
    <trip id="veh203" type="veh_passenger" depart="630.32" departLane="best" from="-328894966#1" to="-803257999#3"/>
    <trip id="veh204" type="veh_passenger" depart="633.43" departLane="best" from="160363127#1" to="-256727246#4"/>
    <trip id="veh206" type="veh_passenger" depart="639.64" departLane="best" departSpeed="max" from="257074755#0" to="-185740083"/>
    <trip id="veh207" type="veh_passenger" depart="642.74" departLane="best" from="-544316448" to="231543472#1"/>
    <trip id="veh208" type="veh_passenger" depart="645.85" departLane="best" from="-544316454" to="-32056140#3"/>
    <trip id="veh209" type="veh_passenger" depart="648.95" departLane="best" from="-552534223#0" to="540335839#13"/>
    <trip id="veh210" type="veh_passenger" depart="652.06" departLane="best" departSpeed="max" from="193771623" to="29252090#1"/>
    <trip id="veh211" type="veh_passenger" depart="655.16" departLane="best" from="328914791" to="328906744#0"/>
    <trip id="veh212" type="veh_passenger" depart="658.27" departLane="best" departSpeed="max" from="-447770103" to="-103972663#0"/>
    <trip id="veh213" type="veh_passenger" depart="661.37" departLane="best" from="-375910967#6" to="328894971#2"/>
    <trip id="veh214" type="veh_passenger" depart="664.48" departLane="best" from="328913050#7" to="800176349#1"/>
    <trip id="veh215" type="veh_passenger" depart="667.58" departLane="best" departSpeed="max" from="-544316507" to="328894969#5"/>
    <trip id="veh216" type="veh_passenger" depart="670.69" departLane="best" from="162054376#0" to="256727245#1"/>
    <trip id="veh217" type="veh_passenger" depart="673.79" departLane="best" from="-8036320#2" to="-123644946#7"/>
    <trip id="veh218" type="veh_passenger" depart="676.90" departLane="best" from="-34995731#5" to="29252063#6"/>
    <trip id="veh219" type="veh_passenger" depart="680.00" departLane="best" from="-544316447#1" to="-257131829#2"/>
    <trip id="veh220" type="veh_passenger" depart="683.11" departLane="best" from="-99596864#0" to="-256727226#1"/>
    <trip id="veh221" type="veh_passenger" depart="686.21" departLane="best" from="230154944#2" to="-123644946#3"/>
    <trip id="veh222" type="veh_passenger" depart="689.32" departLane="best" departSpeed="max" from="-544316442#1" to="256394047#1"/>
    <trip id="veh223" type="veh_passenger" depart="692.42" departLane="best" from="-115786678#1" to="268230301"/>
    <trip id="veh224" type="veh_passenger" depart="695.53" departLane="best" departSpeed="max" from="-230154939" to="163855474#1"/>
    <trip id="veh225" type="veh_passenger" depart="698.63" departLane="best" departSpeed="max" from="-162054376#1" to="115786684#1"/>
    <trip id="veh226" type="veh_passenger" depart="701.74" departLane="best" departSpeed="max" from="-257146087#1" to="-94694447#2"/>
    <trip id="veh227" type="veh_passenger" depart="704.84" departLane="best" from="295319297#0" to="115786684#1"/>
    <trip id="veh228" type="veh_passenger" depart="707.95" departLane="best" from="29252063#4" to="34995730#3"/>
    <trip id="veh229" type="veh_passenger" depart="711.05" departLane="best" from="-29252089#4" to="-213106212"/>
    <trip id="veh230" type="veh_passenger" depart="714.16" departLane="best" from="-115786616#2" to="231543468#1"/>
    <trip id="veh231" type="veh_passenger" depart="717.26" departLane="best" from="242640352#2" to="328908574#6"/>
    <trip id="veh232" type="veh_passenger" depart="720.37" departLane="best" from="242640352#3" to="328894972#1"/>
    <trip id="veh233" type="veh_passenger" depart="723.47" departLane="best" from="556926001" to="-295319297#3"/>
    <trip id="veh234" type="veh_passenger" depart="726.58" departLane="best" from="-115786616#4" to="-257026298#2"/>
    <trip id="veh235" type="veh_passenger" depart="729.68" departLane="best" from="-217699220#0" to="28949622#5"/>
    <trip id="veh236" type="veh_passenger" depart="732.79" departLane="best" from="163855476#11" to="-328894970#6"/>
    <trip id="veh237" type="veh_passenger" depart="735.89" departLane="best" from="257026298#1" to="328906744#1"/>
    <trip id="veh238" type="veh_passenger" depart="739.00" departLane="best" departSpeed="max" from="-256469400" to="256727246#5"/>
    <trip id="veh239" type="veh_passenger" depart="742.10" departLane="best" departSpeed="max" from="29252063#0" to="-242640355"/>
    <trip id="veh240" type="veh_passenger" depart="745.21" departLane="best" from="328908572#2" to="8036324#2"/>
    <trip id="veh241" type="veh_passenger" depart="748.31" departLane="best" from="-328913050#8" to="29252063#4"/>
    <trip id="veh242" type="veh_passenger" depart="751.42" departLane="best" departSpeed="max" from="803188454#0" to="160244944#1"/>
    <trip id="veh243" type="veh_passenger" depart="754.52" departLane="best" from="257131829#4" to="-190306387#2"/>
    <trip id="veh244" type="veh_passenger" depart="757.63" departLane="best" from="256727249#1" to="257123507#0"/>
    <trip id="veh245" type="veh_passenger" depart="760.73" departLane="best" from="-185740100#4" to="328908572#1"/>
    <trip id="veh246" type="veh_passenger" depart="763.84" departLane="best" from="328913050#4" to="256727235#5"/>
    <trip id="veh247" type="veh_passenger" depart="766.94" departLane="best" from="-213111034#1" to="94694469#6"/>
    <trip id="veh248" type="veh_passenger" depart="770.05" departLane="best" from="327350117" to="-99596860#7"/>
    <trip id="veh249" type="veh_passenger" depart="773.15" departLane="best" departSpeed="max" from="-800176349#1" to="115786616#3"/>
    <trip id="veh251" type="veh_passenger" depart="779.36" departLane="best" from="328913050#3" to="343182576"/>
    <trip id="veh252" type="veh_passenger" depart="782.47" departLane="best" from="-211105142#2" to="8036320#2"/>
    <trip id="veh254" type="veh_passenger" depart="788.68" departLane="best" from="257123502" to="163855456"/>
    <trip id="veh256" type="veh_passenger" depart="794.89" departLane="best" departSpeed="max" from="-326493568#1" to="330164982#4"/>
    <trip id="veh257" type="veh_passenger" depart="797.99" departLane="best" from="160363127#0" to="185740095#0"/>
    <trip id="veh258" type="veh_passenger" depart="801.10" departLane="best" from="-8036320#2" to="327350119#1"/>
    <trip id="veh259" type="veh_passenger" depart="804.20" departLane="best" departSpeed="max" from="-326493568#1" to="371719411"/>
    <trip id="veh260" type="veh_passenger" depart="807.31" departLane="best" from="328908575#1" to="-213111034#0"/>
    <trip id="veh261" type="veh_passenger" depart="810.41" departLane="best" from="36747900#4" to="-328913050#5"/>
    <trip id="veh262" type="veh_passenger" depart="813.52" departLane="best" from="-99596860#5" to="256727249#1"/>
    <trip id="veh263" type="veh_passenger" depart="816.62" departLane="best" departSpeed="max" from="-447027862#3" to="-123644946#7"/>
    <trip id="veh264" type="veh_passenger" depart="819.73" departLane="best" from="328913050#4" to="-28507759"/>
    <trip id="veh265" type="veh_passenger" depart="822.83" departLane="best" departSpeed="max" from="-257146087#1" to="328913050#1"/>
    <trip id="veh266" type="veh_passenger" depart="825.94" departLane="best" from="-35972290#3" to="439860656#1"/>
    <trip id="veh267" type="veh_passenger" depart="829.05" departLane="best" from="257026298#2" to="-447770105"/>
    <trip id="veh268" type="veh_passenger" depart="832.15" departLane="best" from="-103972671#6" to="556926006"/>
    <trip id="veh269" type="veh_passenger" depart="835.26" departLane="best" from="-184798057#0" to="327350116#3"/>