<?xml version="1.0" encoding="UTF-8"?>

<!-- generated on 2021-12-12 04:55:20 by Eclipse SUMO duarouter Version v1_11_0+0500-2dacdf4c114
<configuration xmlns:xsi="http://www.w3.org/2001/XMLSchema-instance" xsi:noNamespaceSchemaLocation="http://sumo.dlr.de/xsd/duarouterConfiguration.xsd">

    <input>
        <net-file value="/home/nbiottalk/Traffic_Simulation/sumo/tools/2021-12-12-04-54-57/osm.net.xml"/>
        <route-files value="/home/nbiottalk/Traffic_Simulation/sumo/tools/2021-12-12-04-54-57/osm.pedestrian.trips.xml"/>
    </input>

    <output>
        <output-file value="/home/nbiottalk/Traffic_Simulation/sumo/tools/2021-12-12-04-54-57/osm.pedestrian.rou.xml"/>
        <alternatives-output value="/home/nbiottalk/Traffic_Simulation/sumo/tools/2021-12-12-04-54-57/osm.pedestrian.rou.alt.xml"/>
    </output>

    <time>
        <begin value="0"/>
        <end value="3600"/>
    </time>

    <report>
        <no-warnings value="true"/>
        <ignore-errors value="true"/>
        <no-step-log value="true"/>
    </report>

</configuration>
-->

<routes xmlns:xsi="http://www.w3.org/2001/XMLSchema-instance" xsi:noNamespaceSchemaLocation="http://sumo.dlr.de/xsd/routes_file.xsd">
    <vType id="ped_pedestrian" vClass="pedestrian"/>
    <person id="ped1" type="ped_pedestrian" depart="3.38">
        <walk edges="158364458#1 286652481#0 286652481#2 556235180 -618262399 30337722#11 30337722#10 -30337722#9 -30337722#8 -30337722#7 343233666 158364454#0 -257102740#0 -257102740#1 225796775#0 225796775#1 225796775#2 225796775#3 225796779#0 457390649 -727236186 225796772#1 225796777#0 935336040#7 856342949#0 856342949#1 856342949#2 935336037#3 935336037#4 935336035#3 -588543691#0"/>
    </person>
    <person id="ped2" type="ped_pedestrian" depart="6.77">
        <walk edges="935662929#0 676343476#4 676343475 935662936#4 935662936#3 800176350#1 702921476#1 935662949#6 935662949#7 935662938#4 935662938#5 935662938#6 -295387553#0 935662939#0 935336052#5 254990716#0 254990716#1 254990716#2 254990716#3 257102727 444081353 220880238#0 180370151#0 -257102726#10 -257102726#11 444081356#1 -257102726#14 -257102726#15 -430282964#8 -430282964#5 -430282964#4 -430282964#3 -266143791#3"/>
    </person>
    <person id="ped4" type="ped_pedestrian" depart="13.53">
        <walk edges="-565404068#0 -565404067#2 779854519#2 779854519#1 935662969#2 935662970#1 935662950#9 935662950#8 443714807#3 443714808"/>
    </person>
    <person id="ped5" type="ped_pedestrian" depart="16.92">
        <walk edges="-220354663 225001807#0 -257102726#15 -257102726#14 444081356#1 -257102726#11 -257102726#10 180370151#0 220880238#0 444081353 257102727 254990716#3 254990716#2 254990716#1 935336041#9 935336041#8 935336050#0 935336049#2 287246265#3 287246265#4 287246265#5 935336046#1 935336046#0 935336045 935662909#0 935662909#1 935662910#0 935662910#1 935662919#4 935662919#1 935662894#11 -544316441#3 -544316441#2"/>
    </person>
    <person id="ped6" type="ped_pedestrian" depart="20.30">
        <walk edges="618056548#2 618056552 618056553 618056557#0 618056559 618056560 -497786980#1 618019052 496713212#11 -496713212#12 36769459#0 36769458 424856831#1 424856831#0 -496713212#3 -36769454#2 36769454#1 36769455 36769459#5 935336076 935336075 935336074#1 935336069#3 935336069#2 935336072#0 935336072#1 935336071#0 36769463#0 454599469#5 266143794#1 466282041"/>
    </person>
    <person id="ped7" type="ped_pedestrian" depart="23.68">
        <walk edges="-581609201#0 304387847 -496713212#15 618019053 36769458 424856831#1 424856831#0 -496713212#3 -36769454#2 36769454#1 36769455 36769459#5 935336076 935336075 935336074#1 935336069#3 935336069#2 935336072#0 935336072#1 935336071#0 -540129944#1 540129949"/>
    </person>
    <person id="ped9" type="ped_pedestrian" depart="30.45">
        <walk edges="935336064#5 935336064#4 935336064#3 935336063#0 463062541 115786634#2 115786649 935336078#1 935336078#2 935336087#1 935336092#7 935336092#6 935336091 935336095#0 935336095#1 935336099#5 935336099#6 330321634#2 935726649#0 935726649#1 935726651#0 935726651#1 197908533 702905716 448078030#3 702905717#1 791027394 791027395#0"/>
    </person>
    <person id="ped11" type="ped_pedestrian" depart="37.22">
        <walk edges="935662969#0 935662969#1 935662969#2 935662970#1 935662950#9 225951786#1 856342949#1 856342949#0 935336040#7 225796777#0 225796772#1 287246251#3 -287246251#2 -287246251#1 -257102726#0 -225796776#0 225796776#1"/>
    </person>
    <person id="ped13" type="ped_pedestrian" depart="43.99">
        <walk edges="935662893#0 935336044#0 935336047#2 935336047#7 935336041#5 935336041#6 935336041#7 935336041#8 935336041#9 254990716#1 254990716#2 254990716#3 257102727 444081353 220880238#0 180370151#0 -257102726#10 138080030#0 138080030#1 266143789#0 -544144139#0 544144139#0"/>
    </person>
    <person id="ped14" type="ped_pedestrian" depart="47.37">
        <walk edges="935336065#1 935336065#0 935336066#0 935336066#1 935336061#3 935336064#0 935336064#7 935336061#1 935336061#0 935336062#4 935336062#3 935336056 935336058#4 935336058#3 935336054#0 935336054#1 935336055#1 935336055#0 935662893#0 987497790#1 987497791 987497789#0 987497788 -257026298#0 935662910#0 935662917#0 935662917#1 676343476#2 676343476#3 676343474 676343470#4 676343470#3 676343470#2 935662934#0 935662934#1 935662942 935662943#0 935662943#1 923037113#0 923037113#1"/>
    </person>
    <person id="ped15" type="ped_pedestrian" depart="50.75">
        <walk edges="457389224 457389227#0 457389228 466280295 266143793 -454412690#3 -454412690#2 -454412690#1 -454412690#0 220880238#0 444081353 257102727 254990716#3 254990716#2 254990716#1 935336041#9 935336041#8 935336050#0 935336049#2 287246265#3 287246265#4 287246265#5 935336046#1 935336046#0 935336045 935662909#0 935662909#1 935662910#0 935662910#1 935662919#4 935662919#1 935662894#12 935662894#13 935662894#14 935662894#15 935662920#2 935662920#3 935662895#0 935662994#3"/>
    </person>
    <person id="ped17" type="ped_pedestrian" depart="57.52">
        <walk edges="935336084#1 676343462#1 676343461#0 676343461#1 676343461#2 935336065#2 935336065#1 935336065#0 935336066#0 935336066#1 935336061#3 935336064#0 935336064#7 935336061#1 935336061#0 935336062#4 935336062#3 935336056 935336058#4 935336058#3 935336054#0 935336054#1 935336055#1 935336055#0 935662893#0 987497790#1 987497791 987497789#0 987497788 257026298#1 257026298#2 -544316441#1 -544316441#2 -544316452#0 544316452#1"/>
    </person>
    <person id="ped18" type="ped_pedestrian" depart="60.90">
        <walk edges="935662897#1 935662921#5 935662921#4 935662894#3 -544316449#2 -544316449#1 -544316450 -544316444#0 -935662906#2 544316440#2 935662894#14 935662894#13 935662894#12 935662919#1 935662919#4 935662910#1 935662910#0 935662909#1 935662909#0 935336045 935336046#0 935336046#1 287246265#5 287246265#4 287246265#3 935336049#2 935336050#0 935336041#8 935336041#9 254990716#1 254990716#2 254990716#3 257102727 444081353 220880238#0 180370151#0 -257102726#10 -257102726#11 444081356#1 -257102726#14 -257102726#15 -430282964#8 525067705"/>
    </person>
    <person id="ped19" type="ped_pedestrian" depart="64.29">
        <walk edges="803226463#1 935336057#1 935336062#7 935336062#0 935336057#3 935336057#4 935336058#8 935336058#9 935336041#1 935336041#2 935336041#3 935336047#0 935336047#7 935336041#5 935336041#6 935336041#7 935336041#8 935336052#0 935336052#7 935336041#11 935336042#0 935336042#2 935336039#1 935336039#2 935336040#2 225796777#0 225796771#0 225796780 -225932195#0"/>
    </person>
    <person id="ped20" type="ped_pedestrian" depart="67.67">
        <walk edges="-618019053 36769458 424856831#1 424856831#0 -496713212#3 -36769454#2 36769454#1 36769455 36769459#5 935336076 935336075 935336074#1 935336069#3 935336069#2 935336069#1 935336069#0 935336077#4 935336077#3 935336063#2 935336063#1 935336063#0 935336064#3 935336064#4 935336057#0 935336057#1 935336062#7 935336062#2 935336056 935336058#4 935336058#3 935336054#0 935336054#1 935336055#1 935336055#0 935662893#0 987497790#1 987497791 987497789#0 987497788 -257026298#0 935662910#1 935662907#1 161763716#1 163855471#0"/>
    </person>
    <person id="ped21" type="ped_pedestrian" depart="71.05">
        <walk edges="-257102740#1 -257102740#2 -257102740#3 -257102740#4 454598862 454598861 138080030#1 266143789#0 -544144139#1 585290419 -257102726#13 -217686005#1 -217686005#2 -376107704#0 -376107704#1 220354670 251609792#2 300224920#3 300224920#2 221997547 454598245 221997546 -221997549#3 -221997549#4 -496713212#0 36769456 -496713212#9 268411629 -497786980#0 -497786980#1 618056560 618056559 618056557#0 -618056557#1"/>
    </person>
    <person id="ped22" type="ped_pedestrian" depart="74.44">
        <walk edges="-300224920#3 251609792#2 220354670 -376107704#1 -376107704#0 -217686005#2 -217686005#1 -257102726#13 585290419 -544144139#1 -544144139#0 266143792 -544115701#0 158369312"/>
    </person>
    <person id="ped23" type="ped_pedestrian" depart="77.82">
        <walk edges="565404069#4 -565404067#5 -565404067#4 -565404067#3 -565404067#2 779854519#2 779854519#1 935662969#2 935662970#1 935662950#9 225951786#1 856342949#1 856342949#0 935336040#7 935336040#2 935336039#2 935336039#1 935336042#2 935336042#0 935336041#11 935336052#7 935336052#0 935336041#8 935336041#7 935336041#6 935336041#5 935336047#7 935336047#0 935336041#3 256394047#1 256394048#0"/>
    </person>
    <person id="ped24" type="ped_pedestrian" depart="81.21">
        <walk edges="256727231#6 256727231#5 -256727231#4 256727231#3 -256727231#2 256727231#1 202957812 -202957813 268921146 -544115701#5 -544115701#4 -544115701#3 -544115701#2 -544115701#0 158369312 -30337722#4 -30337722#2 -30337722#1 -30337722#0 -257102726#6 -257102726#5 723006898 225796778#0 749978618#0 749978618#1 254990716#2 254990716#1 935336041#9 935336041#8 935336050#0 935336049#2 287246265#3 287246265#4 287246265#5 935336046#1 935336046#0 935336045 935662909#0 935662909#1 935662910#0 935662910#1 935662919#4 935662919#1 935662894#11 935662894#10 -544316452#1 -544316452#0"/>
    </person>
    <person id="ped25" type="ped_pedestrian" depart="84.59">
        <walk edges="129794982#1 202957812 -202957813 268921146 -544115701#5 -544115701#4 -544115701#3 -544115701#2 -544115701#0 158369312 -30337722#4 -30337722#2 -30337722#1 -30337722#0 -257102726#6 -257102726#5 -257102726#4 -257102726#3 -257102726#2 -257102726#1 -257102726#0 257102733#0 935336042#2 138197700 326493564 138197699 935336038#0 935662939#6 935662939#5 935662951#0 935662951#1 935662948#0 935662953#0 935662953#1 935662952#0 935662952#1 935662952#2 935662952#3 935662952#4 935662952#5 935662954#7 935662954#6 935662954#5"/>
    </person>
    <person id="ped26" type="ped_pedestrian" depart="87.97">
        <walk edges="618056544 496712721#1 618056546 618056548#0 -618056548#1 -618056548#2 618056552 618056553 618056557#0 618056559 618056560 -497786980#1 618019052 496713212#11 -496713212#12 36769459#0 36769458 424856831#1 424856831#0 -496713212#3 -36769454#2 36769454#1 36769455 36769459#5 935336076 935336075 935336074#1 935336069#3 935336069#2 935336069#1 935336069#0 935336077#4 935336077#3 935336063#2 935336063#1 935336063#0 935336064#3 935336064#4 935336057#0 935336057#1 935336062#7 935336062#2 935336056 935336058#4 935336058#3 935336054#0 935336054#1 935336055#1 935336055#0 935662893#0 987497790#1 987497791 987497789#0 987497788 257026298#1 257026298#2 -544316441#1 544316443#0"/>
    </person>
    <person id="ped27" type="ped_pedestrian" depart="91.36">
        <walk edges="-496713212#12 36769459#0 36769458 -496713212#6 -1002041195#1 -496713212#1 -496713212#0 -221997549#4 -221997549#3 221997546 454598245 221997547 300224920#2 300224920#3 251609792#2 220354670 -376107704#1 -376107704#0 -217686005#2 -217686005#1 -257102726#13 257102726#12"/>
    </person>
    <person id="ped29" type="ped_pedestrian" depart="98.12">
        <walk edges="496712721#1 618056546 618056548#0 -618056548#1 -618056548#2 618056552 618056553 618056557#0 618056559 618056560 -497786980#1 -497786980#0 268411629 -496713212#9 36769456 -496713212#0 -221997549#4 -221997549#3 221997546 454598245 221997547 300224920#2 300224920#3 251609792#2 220354670 -376107704#1 -376107704#0 -217686005#2 -217686005#1 -257102726#13 585290419 -544144139#1 -544144139#0 266143792 30337726#5 -30337726#4 397493145 744515209"/>
    </person>
    <person id="ped30" type="ped_pedestrian" depart="101.51">
        <walk edges="935336099#2 935336097#1 935336097#0 935336093 935336094#1 935336090 935336092#1 935336092#0 935336079#3 935336079#2 935336079#1 115786668 115786634#1 115786634#2 463062541 935336063#0 935336064#3 935336064#4 935336057#0 935336057#1 935336062#7 935336062#0 935336057#3 935336057#4 935336058#8 935336058#9 935336041#1 935336041#2 935336041#3 935336047#0 935336047#5"/>
    </person>
    <person id="ped32" type="ped_pedestrian" depart="108.27">
        <walk edges="220354662 -430282964#8 -257102726#15 -257102726#14 -257102726#13 585290419 -544144139#1 -544144139#0 266143792 -544115701#2 -544115701#3 -544115701#4 -544115701#5 268921146 -202957813 202957812 256727231#1 -256727231#2 256727231#3 -256727231#4 138080026#0"/>
    </person>
    <person id="ped33" type="ped_pedestrian" depart="111.66">
        <walk edges="-544316453#1 -544316453#2 935662894#8 935662926#7 935662926#6 935662907#5 935662907#6 935662907#7 935662930#0 935662930#1 676343476#0 676343476#1 676343476#2 676343476#3 676343474 676343470#4 676343470#3 676343470#2 935662934#0 935662934#1 935662942 935662943#0 935662943#1 923037113#0 923037113#1 935662952#10 935662952#9 935662952#8 935662952#7 935662952#6 935662952#5 935662952#4 935662952#3 935662959#0"/>
    </person>
    <person id="ped34" type="ped_pedestrian" depart="115.04">
        <walk edges="935662920#0 935662920#1 935662894#15 935662894#14 935662894#13 935662894#12 935662919#1 935662919#4 935662910#1 935662910#0 935662909#1 935662909#0 935336045 935336046#0 935336046#1 287246265#5 287246265#4 287246265#3 935336049#2 935336050#0 935336041#8 935336041#9 254990716#1 749978377 -225796773#1 749978384 -225796776#1 -225796778#3 254990715#2 -254990715#1 -254990715#0 -257102726#3 444081352 225796775#2 225796775#1 225796775#0 -257102740#1 -257102740#0 158364454#0 343233666 -30337722#7 -30337722#8 -30337722#9 30337722#10 30337722#11 -618262399 556235180 286652481#2 286652481#0 -217703429 217703429"/>
    </person>
    <person id="ped36" type="ped_pedestrian" depart="121.81">
        <walk edges="935662948#0 935662951#1 935662951#0 935662939#5 935662939#6 935336038#0 138197699 326493564 138197700 935336042#2 257102733#0 -257102726#0 -257102726#1 -257102726#2 -257102726#3 -257102726#4 -257102726#5 -257102726#6 -257102726#7 -257102726#8 -257102726#9 -257102726#10 -257102726#11 444081356#1 -217686005#1 -217686005#2 -376107704#0 -376107704#1 220354670 251609792#2 300224920#3 300224920#2 221997547 454598245 221997546 -221997549#3 -221997549#4 -496713212#0 -496713212#1 -1002041195#1 -496713212#6 36769458 618019053 -496713212#15 304387847 -581609201#1 304390113"/>
    </person>
    <person id="ped38" type="ped_pedestrian" depart="128.58">
        <walk edges="496713212#10 -496713212#9 496713212#8 1002041195#1"/>
    </person>
    <person id="ped39" type="ped_pedestrian" depart="131.96">
        <walk edges="537346910 225932195#2 -225932195#1 -225932195#0 225796780 225796771#0 225796777#0 935336040#2 935336040#1 935336040#5 935662939#6 935662939#5 935662939#4 935662939#3 935662939#2 935662949#1 935662949#5 702921476#1 800176350#1 935662933#0 935662933#1"/>
    </person>
    <person id="ped40" type="ped_pedestrian" depart="135.34">
        <walk edges="265787703#1 256727231#1 202957812 -202957813 268921146 -544115701#5 -544115701#4 -544115701#3 -544115701#2 -544115701#0 158369312 -30337722#4 -30337722#2 -30337722#1 -30337722#0 -257102726#6 -257102726#5 -257102726#4 -257102726#3 -257102726#2 -35972288#1 -727236186 225796772#1 225796777#0 935336040#7 856342949#0 856342949#1 225951786#1 935662950#9 935662970#1 935662969#2 779854519#1 779854519#2 -565404067#2 -565404068#0 -565404068#1"/>
    </person>
    <person id="ped41" type="ped_pedestrian" depart="138.73">
        <walk edges="987497791 987497790#1 935662893#0 935336044#0 935336047#2 935336047#7 935336041#5 935336041#6 935336041#7 935336041#8 935336041#9 254990716#1 254990716#2 254990716#3 257102727 444081353 220880238#0 180370151#0 -257102726#10 -257102726#11 444081356#1 -257102726#14 -257102726#15 -430282964#8 -430282964#5 -430282964#4 -430282964#3 430282964#2 444081359"/>
    </person>
    <person id="ped42" type="ped_pedestrian" depart="142.11">
        <walk edges="-286652481#0 -286652481#2 556235180 -618262399 30337722#11 30337722#10 -30337722#9 -30337722#8 -30337722#7 343233666 158364454#0 -257102740#0 -257102740#1 225796775#0 225796775#1 225796775#2 225796775#3 225796779#0 457390649 -727236186 225796772#1 225796777#0 935336040#9 935336036#1 935336036#2 935336037#7 935336036#4 -225932195#3"/>
    </person>
    <person id="ped43" type="ped_pedestrian" depart="145.49">
        <walk edges="-30337726#4 585289650#1 585289264 -30337722#6 343233666 158364454#0 -257102740#0 -257102740#1 225796775#0 225796775#1 225796775#2 225796775#3 225796779#0 457390649 -727236186 225796772#1 225796777#0 935336040#7 856342949#0 856342949#1 225951786#1 935662950#9 935662970#1 935662969#2 779854519#0 565404065#0"/>
    </person>
    <person id="ped45" type="ped_pedestrian" depart="152.26">
        <walk edges="-256727231#6 256727231#5 -256727231#4 256727231#3 -256727231#2 256727231#1 202957812 -202957813 268921146 -544115701#5 -544115701#4 -544115701#3 -544115701#2 -544115701#0 158369312 -30337722#4 -30337722#2 -30337722#1 -30337722#0 -257102726#6 -257102726#5 -257102726#4 -257102726#3 257102726#2"/>
    </person>
    <person id="ped46" type="ped_pedestrian" depart="155.64">
        <walk edges="987497789#0 987497788 -257026298#0 935662910#0 935662909#1 935662909#0 935336045 935336046#0 935336046#1 287246265#5 287246265#4 287246265#3 935336049#2 935336050#0 935336041#8 935336041#9 254990716#1 254990716#2 254990716#3 257102727 444081353 220880238#0 180370151#0 -257102726#10 -257102726#11 444081356#1 -217686005#1 -217686005#2 -376107704#0 -376107704#1 220354670 251609792#2 300224920#3 251609795#1 454598247"/>
    </person>
    <person id="ped47" type="ped_pedestrian" depart="159.03">
        <walk edges="935662984#1 -257923297#1 935662902#1 935662983#5 935662983#3 935662896#1 935662896#2"/>
    </person>
    <person id="ped49" type="ped_pedestrian" depart="165.79">
        <walk edges="727236550#1 727236550#0 -30337726#4 30337726#5 266143792 -544144139#0 -544144139#1 585290419 -257102726#13 -217686005#1 -217686005#2 -376107704#0 -376107704#1 220354670 251609792#1 266143785 266143784 457389222#1 457389222#0 457389226"/>
    </person>
    <person id="ped50" type="ped_pedestrian" depart="169.18">
        <walk edges="129794982#1 202957812 -202957813 268921146 -544115701#5 -544115701#4 -544115701#3 -544115701#2 30337726#5 585289650#1"/>
    </person>
    <person id="ped51" type="ped_pedestrian" depart="172.56">
        <walk edges="-319830832#0 -496713212#18 -496713212#17 496713212#16 -496713212#15 618019053 36769458 424856831#1 424856831#0 -496713212#3 -36769454#2 36769454#1 36769455 36769459#5 935336076 935336075 935336074#1 935336069#3 935336069#2 935336072#0 935336072#1 935336071#0 36769463#0 454599469#5 -454599469#3 -454599469#2 -454599469#1 -454599469#0 254990716#3 254990716#2 254990716#1 254990716#0 935336052#2 935336051 287246270#4 287246270#1 287246269 287246264#1 287246264#0"/>
    </person>
    <person id="ped52" type="ped_pedestrian" depart="175.94">
        <walk edges="30337722#8 -30337722#7 343233666 158364454#0 -257102740#0 -257102740#1 225796775#0 225796775#1 225796775#2 225796775#3 225796779#0 457390649 -727236186 225796772#1 225796777#0 935336040#7 856342949#0 856342949#1 225951786#1 935662950#9 935662970#1 935662970#0 935662962#3 935662962#2 935662962#1 935662966#2"/>
    </person>
    <person id="ped53" type="ped_pedestrian" depart="179.33">
        <walk edges="935662919#4 935662910#1 -257026298#0 987497788 987497789#0 987497791 987497790#1 935662893#0 935336055#0 935336055#1 935336054#1 935336054#0 935336058#3 935336058#4 935336056 935336062#3 935336062#4 935336061#0 935336061#1 935336064#7 935336064#0 935336061#3 935336066#1 935336066#0 935336065#0 115786682 115786634#0"/>
    </person>
    <person id="ped54" type="ped_pedestrian" depart="182.71">
        <walk edges="430282964#5 -430282964#4 -430282964#3 266143791#3 -266143791#2 266143791#1 -266143791#0 220354670 251609792#1 266143785 266143784 457389222#1 457389220 457389227#1 457389227#0 457389228 466280295 266143793 454412690#4 -454412690#5 -454412690#6 466281639 266143794#1 454599469#5 36769463#0 -540129944#1 -540129946#0 -540129945"/>
    </person>
    <person id="ped55" type="ped_pedestrian" depart="186.10">
        <walk edges="935662944#3 923037125#0 923037125#1 923037125#2 923037125#3 923037125#4 935662931#0 935662923#0 935662926#4 935662926#5 935662907#4 935662907#3 935662919#0 935662919#4 935662910#1 935662910#0 935662909#1 935662909#0 935662911"/>
    </person>
    <person id="ped58" type="ped_pedestrian" depart="196.25">
        <walk edges="935336040#6 935336040#7 225796777#0 225796772#1 -727236186 457390649"/>
    </person>
    <person id="ped59" type="ped_pedestrian" depart="199.63">
        <walk edges="935336050#0 935336041#8 935336041#9 254990716#1 254990716#2 254990716#3 -454599469#0 -454599469#1 -454599469#2 454598867"/>
    </person>
    <person id="ped60" type="ped_pedestrian" depart="203.01">
        <walk edges="-1002041195#1 -496713212#1 -496713212#0 -221997549#4 -221997549#3 221997546 454598245 221997547"/>
    </person>
    <person id="ped64" type="ped_pedestrian" depart="216.55">
        <walk edges="935662920#4 935662920#3 935662920#2 935662894#15 935662894#14 935662894#13 935662894#12 935662919#1 935662919#4 935662910#1 935662910#0 935662909#1 935662909#0 935336045 935336046#0 935336046#1 287246265#5 287246265#4 287246265#3 287246265#2 287246265#1 287246265#0 935336053 287246270#4 935336051 935336052#3 935336052#5 935336038#4 935336038#3 935336038#2 326493563 138197699 935336038#0 935336040#4 935336040#6 856342949#0 856342949#1 225951786#1 935662950#9 935662970#1 935662970#0 935662962#3 935662962#2 935662962#1"/>
    </person>
    <person id="ped65" type="ped_pedestrian" depart="219.93">
        <walk edges="-266143791#1 -266143791#0 220354670 251609792#2 300224920#3 300224920#2 221997547 454598245 221997546 -221997549#3 -221997549#4 -496713212#0 -496713212#1 -1002041195#1 -496713212#6 36769458 618019053 -496713212#15 496713212#16 -496713212#17 -496713212#18 -496713212#19 496713212#20 496713212#21 304389838#0 36769462#0"/>
    </person>
    <person id="ped66" type="ped_pedestrian" depart="223.31">
        <walk edges="-257026298#2 935662894#12 935662919#1 935662919#4 935662910#1 935662910#0 935662909#1 935662909#0 935336045 935336046#0 935336046#1 287246265#5 287246265#4 287246265#3 287246265#2 287246265#1 287246265#0 935336053 287246270#4 935336051 935336052#2 935336052#7 935336041#11 935336042#0 935336042#2 935336039#1 935336039#2 935336040#1"/>
    </person>
    <person id="ped67" type="ped_pedestrian" depart="226.70">
        <walk edges="935336041#2 935336041#3 935336047#0 935336047#7 935336041#5 935336041#6 935336041#7 935336041#8 935336041#9 254990716#1 254990716#2 254990716#3 257102727 444081353 220880238#0 180370151#0 -257102726#10 -257102726#11 444081356#1 -257102726#14 -257102726#15 -430282964#8 -430282964#5 -430282964#4 -430282964#3"/>
    </person>
    <person id="ped69" type="ped_pedestrian" depart="233.47">
        <walk edges="115786649 115786634#2 463062541 935336063#0 935336064#3 935336064#4 935336057#0 935336057#1 935336062#7 935336062#2 935336056 935336058#4 935336058#3 935336054#0 935336054#1 935336055#1 935336055#0 935662893#0 987497790#1 987497791 987497789#0 987497788 -257026298#0 935662910#0 935662917#0 935662914#1 935662914#0"/>
    </person>
    <person id="ped71" type="ped_pedestrian" depart="240.23">
        <walk edges="457390649 -727236186 225796772#1 225796777#0 935336040#7 935662950#0 935662950#1 935662950#2 935662950#3 935662950#4 935662964#1 935662964#0 935662952#1 935662952#2 935662952#3 935662952#4 935662952#5 935662952#6 935662952#7 935662952#8 935662952#9 935662952#10 923037114#0"/>
    </person>
    <person id="ped73" type="ped_pedestrian" depart="247.00">
        <walk edges="987497787 -987497796 454412690#4 266143793 466280295 457389228 457389227#0 457389227#1 457389220 457389222#1 266143784 266143785 251609792#1 251609792#2 300224920#3 300224920#2 221997547 454598245 221997546 -221997549#3 -221997549#4 -496713212#0 36769456 -496713212#9 268411629 -497786980#0 -497786980#1 618056560 618056559 618056557#0 618056553 618056552 618056548#2"/>
    </person>
    <person id="ped74" type="ped_pedestrian" depart="250.38">
        <walk edges="287246265#4 935336047#5 935336047#0 935336041#3 935336041#2 935336041#1 935336058#9 935336058#8 935336057#4 935336057#3 935336062#0 935336062#7 935336057#1 935336057#0 935336064#4 935336064#3 935336063#0 463062541 115786634#2 115786649 935336078#1 935336078#2 935336087#1 935336092#7 935336092#6 935336091 935336095#0 935336095#1 935336099#5 935336099#6 330321634#2 935726649#0 935726649#1 935726651#0 935726651#1 197908533 702905716 448078030#3"/>
    </person>
    <person id="ped75" type="ped_pedestrian" depart="253.77">
        <walk edges="-36691122#2 -617407584 -496713212#24 -36769452#0 36769462#6 36769462#5 36769462#4 36769462#3 -618013187"/>
    </person>
    <person id="ped76" type="ped_pedestrian" depart="257.15">
        <walk edges="225796778#0 225796770#2 -454599469#0 -454599469#1 -454599469#2 -454599469#3 454599469#5 36769463#0 -540129944#1 540129947"/>
    </person>
    <person id="ped77" type="ped_pedestrian" depart="260.53">
        <walk edges="-618056548#0 -618056548#1 -618056548#2 618056552 618056553 618056557#0 618056559 618056560 -497786980#1 618019052 496713212#11 -496713212#12 -496713212#14 -496713212#15 304387847 -581609201#0"/>
    </person>
    <person id="ped78" type="ped_pedestrian" depart="263.92">
        <walk edges="-257102726#1 -257102726#0 -287246251#1 -287246251#2 287246251#3 225796772#1 225796777#0 935336040#7 856342949#0 856342949#1 225951786#1 935662950#9 935662970#1 935662969#2 779854519#1 779854519#2 -565404067#2 565404067#3"/>
    </person>
    <person id="ped80" type="ped_pedestrian" depart="270.68">
        <walk edges="935662896#0 935662983#3 935662983#2 935662895#2 935662921#2 935662921#3 935662894#3 -544316449#2 -544316449#1 -544316450 -544316444#0 -935662906#2 544316440#2 935662894#14 935662894#13 935662894#12 935662919#1 935662919#4 935662910#1 935662910#0 935662909#1 935662909#0 935336045 935336046#0 935336046#1 287246265#5 287246265#4 287246265#3 287246265#2 287246265#1 287246265#0 935336053 287246270#4 935336051 935336052#2 935336052#7 935336041#11 935336042#0 257102733#0 -257102726#0 -257102726#1"/>
    </person>
    <person id="ped81" type="ped_pedestrian" depart="274.07">
        <walk edges="-729377563 225796771#1 225796771#0 225796777#0 935336040#2 935336040#1 935336040#5 935662939#6 935662939#5 935662939#4 935662939#3 935662939#2 935662949#1 935662949#5 702921476#1 800176350#1 935662936#3 935662936#4 676343475 676343474 676343470#4"/>
    </person>
    <person id="ped83" type="ped_pedestrian" depart="280.84">
        <walk edges="345651152#1 -542816098#3 -542816098#2 -542816098#1 -542818585#1 -36691122#1 -617407584 -496713212#24 -496713212#23 496713212#22 496713212#21 496713212#20 -496713212#19 -496713212#18 -496713212#17 496713212#16 -496713212#15 618019053 36769458 424856831#1 424856831#0 -496713212#3 -36769454#2 36769454#1 36769455 36769459#5 935336076 935336075 935336074#1 935336069#3 935336069#2 935336069#1 935336069#0 935336077#4 935336077#3 935336063#2 935336063#1 935336063#0 935336064#3 935336064#4 935336057#0 935336057#1 935336062#7 935336062#2 935336056 935336058#4 935336058#3 935336054#0 935336054#1 935336054#2"/>
    </person>
    <person id="ped84" type="ped_pedestrian" depart="284.22">
        <walk edges="935336065#2 935336065#1 115786682 115786634#0 115786634#1 115786634#2 463062541 935336063#1 935336063#2 935336077#3 935336077#4 935336069#0 935336069#1 935336069#2 935336069#3 935336074#1 935336075 935336076 36769459#5 36769455 36769454#1 -36769454#2 -496713212#3 424856831#0 424856831#1 36769458 618019053 -496713212#15 496713212#16 -496713212#17 -496713212#18 -496713212#19 496713212#20 496713212#21 496713212#22 -496713212#23 -496713212#24 -617407584 -36691122#1 -542818585#1 -542816098#1 -542818585#3"/>
    </person>
    <person id="ped85" type="ped_pedestrian" depart="287.60">
        <walk edges="-29252088#0 -29252088#1 935662953#0 935662948#0 935662951#1 935662951#0 935662939#5 935662939#6 935336038#0 138197699 326493563 935336038#2 935336038#3 935336038#4 935336052#5 935336052#3 935336051 287246270#4 287246270#1 287246269 287246264#1 287246263 287246257#2 287246257#3"/>
    </person>
    <person id="ped87" type="ped_pedestrian" depart="294.37">
        <walk edges="923037113#0 935662943#1 935662943#0 935662942 935662934#1 935662934#0 676343470#2 676343470#3 676343470#4 676343474 676343476#4"/>
    </person>
    <person id="ped88" type="ped_pedestrian" depart="297.75">
        <walk edges="94598258#2 36769462#0 304389838#0 496713212#21 496713212#20 -496713212#19 -496713212#18 -496713212#17 496713212#16 -496713212#15 618019053 36769458 424856831#1 424856831#0 -496713212#3 -36769454#2 36769454#1 36769455 36769459#5 935336076 935336075 935336074#1 935336069#3 935336069#2 935336072#0 935336072#1 935336071#0 36769463#0 454599469#5 -454599469#3 -454599469#2 -454599469#1 -454599469#0 254990716#3 254990716#2 254990716#1 254990716#0 935336052#5 935662939#0 -295387553#0"/>
    </person>
    <person id="ped89" type="ped_pedestrian" depart="301.14">