<?xml version="1.0" encoding="UTF-8"?>
<!-- generated on 2021-12-12 04:55:18.441307 by osmWebWizard.py v1_11_0+0500-2dacdf4c114
  options: 
-->
<routes xmlns:xsi="http://www.w3.org/2001/XMLSchema-instance" xsi:noNamespaceSchemaLocation="http://sumo.dlr.de/xsd/routes_file.xsd">
    <vType id="ped_pedestrian" vClass="pedestrian"/>
    <person id="ped0" depart="0.00" type="ped_pedestrian">
        <walk from="583510947" to="-217686005#2"/>
    </person>
    <person id="ped1" depart="3.38" type="ped_pedestrian">
        <walk from="158364458#1" to="-588543691#0"/>
    </person>
    <person id="ped2" depart="6.77" type="ped_pedestrian">
        <walk from="935662929#0" to="-266143791#3"/>
    </person>
    <person id="ped3" depart="10.15" type="ped_pedestrian">
        <walk from="283908021" to="-220354670"/>
    </person>
    <person id="ped4" depart="13.53" type="ped_pedestrian">
        <walk from="-565404068#0" to="443714808"/>
    </person>
    <person id="ped5" depart="16.92" type="ped_pedestrian">
        <walk from="-220354663" to="-544316441#2"/>
    </person>
    <person id="ped6" depart="20.30" type="ped_pedestrian">
        <walk from="618056548#2" to="466282041"/>
    </person>
    <person id="ped7" depart="23.68" type="ped_pedestrian">
        <walk from="-581609201#0" to="540129949"/>
    </person>
    <person id="ped8" depart="27.07" type="ped_pedestrian">
        <walk from="935336069#1" to="-161279832"/>
    </person>
    <person id="ped9" depart="30.45" type="ped_pedestrian">
        <walk from="935336064#5" to="791027395#0"/>
    </person>
    <person id="ped10" depart="33.84" type="ped_pedestrian">
        <walk from="225796779#1" to="-489724734#2"/>
    </person>
    <person id="ped11" depart="37.22" type="ped_pedestrian">
        <walk from="935662969#0" to="225796776#1"/>
    </person>
    <person id="ped12" depart="40.60" type="ped_pedestrian">
        <walk from="-287060303" to="-29252088#0"/>
    </person>
    <person id="ped13" depart="43.99" type="ped_pedestrian">
        <walk from="935662893#0" to="544144139#0"/>
    </person>
    <person id="ped14" depart="47.37" type="ped_pedestrian">
        <walk from="935336065#1" to="923037113#1"/>
    </person>
    <person id="ped15" depart="50.75" type="ped_pedestrian">
        <walk from="457389224" to="935662994#3"/>
    </person>
    <person id="ped16" depart="54.14" type="ped_pedestrian">
        <walk from="257102726#10" to="489724734#2"/>
    </person>
    <person id="ped17" depart="57.52" type="ped_pedestrian">
        <walk from="935336084#1" to="544316452#1"/>
    </person>
    <person id="ped18" depart="60.90" type="ped_pedestrian">
        <walk from="935662897#1" to="525067705"/>
    </person>
    <person id="ped19" depart="64.29" type="ped_pedestrian">
        <walk from="803226463#1" to="-225932195#0"/>
    </person>
    <person id="ped20" depart="67.67" type="ped_pedestrian">
        <walk from="-618019053" to="163855471#0"/>
    </person>
    <person id="ped21" depart="71.05" type="ped_pedestrian">
        <walk from="-257102740#1" to="-618056557#1"/>
    </person>
    <person id="ped22" depart="74.44" type="ped_pedestrian">
        <walk from="-300224920#3" to="158369312"/>
    </person>
    <person id="ped23" depart="77.82" type="ped_pedestrian">
        <walk from="565404069#4" to="256394048#0"/>
    </person>
    <person id="ped24" depart="81.21" type="ped_pedestrian">
        <walk from="256727231#6" to="-544316452#0"/>
    </person>
    <person id="ped25" depart="84.59" type="ped_pedestrian">
        <walk from="129794982#1" to="935662954#5"/>
    </person>
    <person id="ped26" depart="87.97" type="ped_pedestrian">
        <walk from="618056544" to="544316443#0"/>
    </person>
    <person id="ped27" depart="91.36" type="ped_pedestrian">
        <walk from="-496713212#12" to="257102726#12"/>
    </person>
    <person id="ped28" depart="94.74" type="ped_pedestrian">
        <walk from="984924785" to="583515341"/>
    </person>
    <person id="ped29" depart="98.12" type="ped_pedestrian">
        <walk from="496712721#1" to="744515209"/>
    </person>
    <person id="ped30" depart="101.51" type="ped_pedestrian">
        <walk from="935336099#2" to="935336047#5"/>
    </person>
    <person id="ped31" depart="104.89" type="ped_pedestrian">
        <walk from="-618019374#1" to="-221997549#0"/>
    </person>
    <person id="ped32" depart="108.27" type="ped_pedestrian">
        <walk from="220354662" to="138080026#0"/>
    </person>
    <person id="ped33" depart="111.66" type="ped_pedestrian">
        <walk from="-544316453#1" to="935662959#0"/>
    </person>
    <person id="ped34" depart="115.04" type="ped_pedestrian">
        <walk from="935662920#0" to="217703429"/>
    </person>
    <person id="ped35" depart="118.42" type="ped_pedestrian">
        <walk from="638752897" to="257131834#1"/>
    </person>
    <person id="ped36" depart="121.81" type="ped_pedestrian">
        <walk from="935662948#0" to="304390113"/>
    </person>
    <person id="ped37" depart="125.19" type="ped_pedestrian">
        <walk from="115786649" to="-916588319"/>
    </person>
    <person id="ped38" depart="128.58" type="ped_pedestrian">
        <walk from="496713212#10" to="1002041195#1"/>
    </person>
    <person id="ped39" depart="131.96" type="ped_pedestrian">
        <walk from="537346910" to="935662933#1"/>
    </person>
    <person id="ped40" depart="135.34" type="ped_pedestrian">
        <walk from="265787703#1" to="-565404068#1"/>
    </person>
    <person id="ped41" depart="138.73" type="ped_pedestrian">
        <walk from="987497791" to="444081359"/>
    </person>
    <person id="ped42" depart="142.11" type="ped_pedestrian">
        <walk from="-286652481#0" to="-225932195#3"/>
    </person>
    <person id="ped43" depart="145.49" type="ped_pedestrian">
        <walk from="-30337726#4" to="565404065#0"/>
    </person>
    <person id="ped44" depart="148.88" type="ped_pedestrian">
        <walk from="935336058#0" to="283908021"/>
    </person>
    <person id="ped45" depart="152.26" type="ped_pedestrian">
        <walk from="-256727231#6" to="257102726#2"/>
    </person>
    <person id="ped46" depart="155.64" type="ped_pedestrian">
        <walk from="987497789#0" to="454598247"/>
    </person>
    <person id="ped47" depart="159.03" type="ped_pedestrian">
        <walk from="935662984#1" to="935662896#2"/>
    </person>
    <person id="ped48" depart="162.41" type="ped_pedestrian">
        <walk from="-161279851#0" to="856344521"/>
    </person>
    <person id="ped49" depart="165.79" type="ped_pedestrian">
        <walk from="727236550#1" to="457389226"/>
    </person>
    <person id="ped50" depart="169.18" type="ped_pedestrian">
        <walk from="129794982#1" to="585289650#1"/>
    </person>
    <person id="ped51" depart="172.56" type="ped_pedestrian">
        <walk from="-319830832#0" to="287246264#0"/>
    </person>
    <person id="ped52" depart="175.94" type="ped_pedestrian">
        <walk from="30337722#8" to="935662966#2"/>
    </person>
    <person id="ped53" depart="179.33" type="ped_pedestrian">
        <walk from="935662919#4" to="115786634#0"/>
    </person>
    <person id="ped54" depart="182.71" type="ped_pedestrian">
        <walk from="430282964#5" to="-540129945"/>
    </person>
    <person id="ped55" depart="186.10" type="ped_pedestrian">
        <walk from="935662944#3" to="935662911"/>
    </person>
    <person id="ped56" depart="189.48" type="ped_pedestrian">
        <walk from="203116397#2" to="583101231"/>
    </person>
    <person id="ped57" depart="192.86" type="ped_pedestrian">
        <walk from="544316443#0" to="-489724730#1"/>
    </person>
    <person id="ped58" depart="196.25" type="ped_pedestrian">
        <walk from="935336040#6" to="457390649"/>
    </person>
    <person id="ped59" depart="199.63" type="ped_pedestrian">
        <walk from="935336050#0" to="454598867"/>
    </person>
    <person id="ped60" depart="203.01" type="ped_pedestrian">
        <walk from="-1002041195#1" to="221997547"/>
    </person>
    <person id="ped61" depart="206.40" type="ped_pedestrian">
        <walk from="-185740096#1" to="935662952#4"/>
    </person>
    <person id="ped62" depart="209.78" type="ped_pedestrian">
        <walk from="935662920#5" to="935336089"/>
    </person>
    <person id="ped63" depart="213.16" type="ped_pedestrian">
        <walk from="216737495#1" to="-256394047#2"/>
    </person>
    <person id="ped64" depart="216.55" type="ped_pedestrian">
        <walk from="935662920#4" to="935662962#1"/>
    </person>
    <person id="ped65" depart="219.93" type="ped_pedestrian">
        <walk from="-266143791#1" to="36769462#0"/>
    </person>
    <person id="ped66" depart="223.31" type="ped_pedestrian">
        <walk from="-257026298#2" to="935336040#1"/>
    </person>
    <person id="ped67" depart="226.70" type="ped_pedestrian">
        <walk from="935336041#2" to="-430282964#3"/>
    </person>
    <person id="ped68" depart="230.08" type="ped_pedestrian">
        <walk from="36691119#1" to="489724730#4"/>
    </person>
    <person id="ped69" depart="233.47" type="ped_pedestrian">
        <walk from="115786649" to="935662914#0"/>
    </person>
    <person id="ped70" depart="236.85" type="ped_pedestrian">
        <walk from="286363616#1" to="-544316454"/>
    </person>
    <person id="ped71" depart="240.23" type="ped_pedestrian">
        <walk from="457390649" to="923037114#0"/>
    </person>
    <person id="ped72" depart="243.62" type="ped_pedestrian">
        <walk from="-544316443#3" to="216737501#1"/>
    </person>
    <person id="ped73" depart="247.00" type="ped_pedestrian">
        <walk from="987497787" to="618056548#2"/>
    </person>
    <person id="ped74" depart="250.38" type="ped_pedestrian">
        <walk from="287246265#4" to="448078030#3"/>
    </person>
    <person id="ped75" depart="253.77" type="ped_pedestrian">
        <walk from="-36691122#2" to="-618013187"/>
    </person>
    <person id="ped76" depart="257.15" type="ped_pedestrian">
        <walk from="225796778#0" to="540129947"/>
    </person>
    <person id="ped77" depart="260.53" type="ped_pedestrian">
        <walk from="-618056548#0" to="-581609201#0"/>
    </person>
    <person id="ped78" depart="263.92" type="ped_pedestrian">
        <walk from="-257102726#1" to="565404067#3"/>
    </person>
    <person id="ped79" depart="267.30" type="ped_pedestrian">
        <walk from="-618019374#1" to="935662938#5"/>
    </person>
    <person id="ped80" depart="270.68" type="ped_pedestrian">
        <walk from="935662896#0" to="-257102726#1"/>
    </person>
    <person id="ped81" depart="274.07" type="ped_pedestrian">
        <walk from="-729377563" to="676343470#4"/>
    </person>
    <person id="ped82" depart="277.45" type="ped_pedestrian">
        <walk from="-552536763" to="-445536246#2"/>
    </person>
    <person id="ped83" depart="280.84" type="ped_pedestrian">
        <walk from="345651152#1" to="935336054#2"/>
    </person>
    <person id="ped84" depart="284.22" type="ped_pedestrian">
        <walk from="935336065#2" to="-542818585#3"/>
    </person>
    <person id="ped85" depart="287.60" type="ped_pedestrian">
        <walk from="-29252088#0" to="287246257#3"/>
    </person>
    <person id="ped86" depart="290.99" type="ped_pedestrian">
        <walk from="286611903" to="330321634#1"/>
    </person>
    <person id="ped87" depart="294.37" type="ped_pedestrian">
        <walk from="923037113#0" to="676343476#4"/>
    </person>
    <person id="ped88" depart="297.75" type="ped_pedestrian">
        <walk from="94598258#2" to="-295387553#0"/>
    </person>
    <person id="ped89" depart="301.14" type="ped_pedestrian">
        <walk from="266143789#0" to="225796778#3"/>
    </person>
    <person id="ped90" depart="304.52" type="ped_pedestrian">
        <walk from="935662897#1" to="-923037129#3"/>
    </person>
    <person id="ped91" depart="307.90" type="ped_pedestrian">
        <walk from="-542818585#3" to="302120609"/>
    </person>
    <person id="ped92" depart="311.29" type="ped_pedestrian">
        <walk from="283908021" to="161279832"/>
    </person>
    <person id="ped93" depart="314.67" type="ped_pedestrian">
        <walk from="-923037130#2" to="935662950#7"/>
    </person>
    <person id="ped94" depart="318.05" type="ped_pedestrian">
        <walk from="288155487" to="935662897#0"/>
    </person>
    <person id="ped95" depart="321.44" type="ped_pedestrian">
        <walk from="987497795" to="935336092#5"/>
    </person>
    <person id="ped96" depart="324.82" type="ped_pedestrian">
        <walk from="935662983#5" to="935662951#3"/>
    </person>
    <person id="ped97" depart="328.20" type="ped_pedestrian">
        <walk from="935662893#3" to="-496713212#19"/>
    </person>
    <person id="ped98" depart="331.59" type="ped_pedestrian">
        <walk from="36769460" to="-544316507"/>
    </person>
    <person id="ped99" depart="334.97" type="ped_pedestrian">
        <walk from="266143784" to="-256394048#1"/>
    </person>
    <person id="ped100" depart="338.36" type="ped_pedestrian">
        <walk from="257102726#11" to="94874362"/>
    </person>
    <person id="ped101" depart="341.74" type="ped_pedestrian">
        <walk from="115786668" to="935336054#1"/>
    </person>
    <person id="ped102" depart="345.12" type="ped_pedestrian">
        <walk from="30337724#1" to="286363616#1"/>
    </person>
    <person id="ped103" depart="348.51" type="ped_pedestrian">
        <walk from="935662969#0" to="987497787"/>
    </person>
    <person id="ped104" depart="351.89" type="ped_pedestrian">
        <walk from="489724737#1" to="856344519#0"/>
    </person>
    <person id="ped105" depart="355.27" type="ped_pedestrian">
        <walk from="-489724734#1" to="203116378"/>
    </person>
    <person id="ped106" depart="358.66" type="ped_pedestrian">
        <walk from="935662983#4" to="525073216"/>
    </person>
    <person id="ped107" depart="362.04" type="ped_pedestrian">
        <walk from="-256394047#1" to="537346909"/>
    </person>
    <person id="ped108" depart="365.42" type="ped_pedestrian">
        <walk from="442038147#0" to="935662894#14"/>
    </person>
    <person id="ped109" depart="368.81" type="ped_pedestrian">
        <walk from="-257102740#2" to="-540129962"/>
    </person>
    <person id="ped110" depart="372.19" type="ped_pedestrian">
        <walk from="542816098#0" to="676474088"/>
    </person>
    <person id="ped111" depart="375.57" type="ped_pedestrian">
        <walk from="935662926#5" to="-916588318#1"/>
    </person>
    <person id="ped112" depart="378.96" type="ped_pedestrian">
        <walk from="540129963" to="544316453#1"/>
    </person>
    <person id="ped113" depart="382.34" type="ped_pedestrian">
        <walk from="272396573#2" to="537346908#3"/>
    </person>
    <person id="ped114" depart="385.73" type="ped_pedestrian">
        <walk from="454412574#1" to="935662954#1"/>
    </person>
    <person id="ped115" depart="389.11" type="ped_pedestrian">
        <walk from="-544316446" to="856344517#3"/>
    </person>
    <person id="ped116" depart="392.49" type="ped_pedestrian">
        <walk from="-774032005#0" to="257131834#2"/>
    </person>
    <person id="ped117" depart="395.88" type="ped_pedestrian">
        <walk from="676343476#0" to="213109007"/>
    </person>
    <person id="ped118" depart="399.26" type="ped_pedestrian">
        <walk from="220354664" to="935336036#3"/>
    </person>
    <person id="ped119" depart="402.64" type="ped_pedestrian">
        <walk from="-257102726#13" to="304389838#0"/>
    </person>
    <person id="ped120" depart="406.03" type="ped_pedestrian">
        <walk from="987497793" to="987497789#0"/>
    </person>
    <person id="ped121" depart="409.41" type="ped_pedestrian">
        <walk from="-257102726#14" to="-544316506#1"/>
    </person>
    <person id="ped122" depart="412.79" type="ped_pedestrian">
        <walk from="115786668" to="935662953#2"/>
    </person>
    <person id="ped123" depart="416.18" type="ped_pedestrian">
        <walk from="935662921#1" to="935662920#6"/>
    </person>
    <person id="ped124" depart="419.56" type="ped_pedestrian">
        <walk from="256727231#5" to="-496712721#0"/>
    </person>
    <person id="ped125" depart="422.94" type="ped_pedestrian">
        <walk from="935336092#1" to="803188454#0"/>
    </person>
    <person id="ped126" depart="426.33" type="ped_pedestrian">
        <walk from="544316444#2" to="966631230"/>
    </person>
    <person id="ped127" depart="429.71" type="ped_pedestrian">
        <walk from="618056568" to="-161279837"/>
    </person>
    <person id="ped128" depart="433.10" type="ped_pedestrian">
        <walk from="935336077#3" to="203126701"/>
    </person>
    <person id="ped129" depart="436.48" type="ped_pedestrian">
        <walk from="-447990065" to="-35972288#0"/>
    </person>
    <person id="ped130" depart="439.86" type="ped_pedestrian">
        <walk from="-30337722#9" to="489724736#0"/>
    </person>
    <person id="ped131" depart="443.25" type="ped_pedestrian">
        <walk from="138197700" to="544176917"/>
    </person>
    <person id="ped132" depart="446.63" type="ped_pedestrian">
        <walk from="856344518#1" to="-544316444#3"/>
    </person>
    <person id="ped133" depart="450.01" type="ped_pedestrian">
        <walk from="565404069#1" to="115786634#1"/>
    </person>
    <person id="ped134" depart="453.40" type="ped_pedestrian">
        <walk from="36769462#5" to="935662938#5"/>
    </person>
    <person id="ped135" depart="456.78" type="ped_pedestrian">
        <walk from="935336099#9" to="-286896814"/>
    </person>
    <person id="ped136" depart="460.16" type="ped_pedestrian">
        <walk from="-138080028#1" to="935336043#2"/>
    </person>
    <person id="ped137" depart="463.55" type="ped_pedestrian">
        <walk from="565404072" to="-987497797"/>
    </person>
    <person id="ped138" depart="466.93" type="ped_pedestrian">
        <walk from="287246251#1" to="-161279846"/>
    </person>
    <person id="ped139" depart="470.31" type="ped_pedestrian">
        <walk from="-257102726#4" to="935662921#6"/>
    </person>
    <person id="ped140" depart="473.70" type="ped_pedestrian">
        <walk from="935662938#2" to="486761199"/>
    </person>
    <person id="ped141" depart="477.08" type="ped_pedestrian">
        <walk from="-466279874" to="-430282964#1"/>
    </person>
    <person id="ped142" depart="480.46" type="ped_pedestrian">
        <walk from="216737496#1" to="935662935#0"/>
    </person>
    <person id="ped143" depart="483.85" type="ped_pedestrian">
        <walk from="935336059" to="935662896#2"/>
    </person>
    <person id="ped144" depart="487.23" type="ped_pedestrian">
        <walk from="935662934#1" to="-544316452#1"/>
    </person>
    <person id="ped145" depart="490.62" type="ped_pedestrian">
        <walk from="-923037130#1" to="-30337722#10"/>
    </person>
    <person id="ped146" depart="494.00" type="ped_pedestrian">
        <walk from="935336052#0" to="935662922#1"/>
    </person>
    <person id="ped147" depart="497.38" type="ped_pedestrian">
        <walk from="266143793" to="544316454"/>
    </person>
    <person id="ped148" depart="500.77" type="ped_pedestrian">
        <walk from="935662906#2" to="935662998#0"/>
    </person>
    <person id="ped149" depart="504.15" type="ped_pedestrian">
        <walk from="935336069#3" to="935662921#2"/>
    </person>
    <person id="ped150" depart="507.53" type="ped_pedestrian">
        <walk from="-217686005#2" to="923037126#2"/>
    </person>
    <person id="ped151" depart="510.92" type="ped_pedestrian">
        <walk from="225796772#1" to="935662952#7"/>
    </person>
    <person id="ped152" depart="514.30" type="ped_pedestrian">
        <walk from="935336063#0" to="935662906#0"/>
    </person>
    <person id="ped153" depart="517.68" type="ped_pedestrian">
        <walk from="935336069#3" to="129794982#1"/>
    </person>
    <person id="ped154" depart="521.07" type="ped_pedestrian">
        <walk from="935336054#7" to="-30337726#0"/>
    </person>
    <person id="ped155" depart="524.45" type="ped_pedestrian">
        <walk from="935662914#0" to="935662895#2"/>
    </person>
    <person id="ped156" depart="527.83" type="ped_pedestrian">
        <walk from="-583510947" to="935336077#2"/>
    </person>
    <person id="ped157" depart="531.22" type="ped_pedestrian">
        <walk from="319830832#2" to="213115267"/>
    </person>
    <person id="ped158" depart="534.60" type="ped_pedestrian">
        <walk from="935336058#8" to="-618019052"/>
    </person>
    <person id="ped159" depart="537.99" type="ped_pedestrian">
        <walk from="-213115267" to="-544115701#2"/>
    </person>
    <person id="ped160" depart="541.37" type="ped_pedestrian">
        <walk from="225796770#0" to="935662906#0"/>
    </person>
    <person id="ped161" depart="544.75" type="ped_pedestrian">
        <walk from="935662983#0" to="161279833"/>
    </person>
    <person id="ped162" depart="548.14" type="ped_pedestrian">
        <walk from="585289651" to="265787703#1"/>
    </person>
    <person id="ped163" depart="551.52" type="ped_pedestrian">
        <walk from="935726658#3" to="457389224"/>
    </person>
    <person id="ped164" depart="554.90" type="ped_pedestrian">
        <walk from="935662956#0" to="-35972288#0"/>
    </person>
    <person id="ped165" depart="558.29" type="ped_pedestrian">
        <walk from="935662983#7" to="-540129944#1"/>
    </person>
    <person id="ped166" depart="561.67" type="ped_pedestrian">
        <walk from="935662973#0" to="115786668"/>
    </person>
    <person id="ped167" depart="565.05" type="ped_pedestrian">
        <walk from="-30337726#0" to="287246263"/>
    </person>
    <person id="ped168" depart="568.44" type="ped_pedestrian">
        <walk from="923037112#1" to="217686007#0"/>
    </person>
    <person id="ped169" depart="571.82" type="ped_pedestrian">
        <walk from="544316440#1" to="447754158"/>
    </person>
    <person id="ped170" depart="575.20" type="ped_pedestrian">
        <walk from="257102727" to="525067703"/>
    </person>
    <person id="ped171" depart="578.59" type="ped_pedestrian">
        <walk from="-935662912" to="835453752#4"/>
    </person>
    <person id="ped172" depart="581.97" type="ped_pedestrian">
        <walk from="-129794982#1" to="935662951#2"/>
    </person>
    <person id="ped173" depart="585.36" type="ped_pedestrian">
        <walk from="457389228" to="856344519#2"/>
    </person>
    <person id="ped174" depart="588.74" type="ped_pedestrian">
        <walk from="923037128#4" to="676343474"/>
    </person>
    <person id="ped175" depart="592.12" type="ped_pedestrian">
        <walk from="256394047#2" to="-257074754"/>
    </person>
    <person id="ped176" depart="595.51" type="ped_pedestrian">
        <walk from="676343468#0" to="225796771#0"/>
    </person>
    <person id="ped177" depart="598.89" type="ped_pedestrian">
        <walk from="217686007#0" to="935662893#2"/>
    </person>
    <person id="ped178" depart="602.27" type="ped_pedestrian">
        <walk from="856344519#2" to="213109752"/>
    </person>
    <person id="ped179" depart="605.66" type="ped_pedestrian">
        <walk from="216737498" to="268411628"/>
    </person>
    <person id="ped180" depart="609.04" type="ped_pedestrian">
        <walk from="266143789#0" to="202957812"/>
    </person>
    <person id="ped181" depart="612.42" type="ped_pedestrian">
        <walk from="-430282964#1" to="272396577#0"/>
    </person>
    <person id="ped182" depart="615.81" type="ped_pedestrian">
        <walk from="935662938#0" to="544316449#0"/>
    </person>
    <person id="ped183" depart="619.19" type="ped_pedestrian">
        <walk from="213113680#0" to="489724729"/>
    </person>
    <person id="ped184" depart="622.57" type="ped_pedestrian">
        <walk from="-1002041195#0" to="161763717#3"/>
    </person>
    <person id="ped185" depart="625.96" type="ped_pedestrian">
        <walk from="287246257#1" to="531656097"/>
    </person>
    <person id="ped186" depart="629.34" type="ped_pedestrian">
        <walk from="287246270#3" to="-544316507"/>
    </person>
    <person id="ped187" depart="632.72" type="ped_pedestrian">
        <walk from="935336059" to="-496713212#25"/>
    </person>
    <person id="ped188" depart="636.11" type="ped_pedestrian">
        <walk from="-263297643#1" to="447990098#1"/>
    </person>
    <person id="ped189" depart="639.49" type="ped_pedestrian">
        <walk from="565404068#1" to="225796775#3"/>
    </person>
    <person id="ped190" depart="642.88" type="ped_pedestrian">
        <walk from="935336077#6" to="935336036#2"/>
    </person>
    <person id="ped191" depart="646.26" type="ped_pedestrian">
        <walk from="-544316441#3" to="-217686005#1"/>
    </person>
    <person id="ped192" depart="649.64" type="ped_pedestrian">
        <walk from="-8036321#0" to="36691119#0"/>
    </person>
    <person id="ped193" depart="653.03" type="ped_pedestrian">
        <walk from="935662894#0" to="-257102726#13"/>
    </person>
    <person id="ped194" depart="656.41" type="ped_pedestrian">
        <walk from="271169357#0" to="565404065#4"/>
    </person>
    <person id="ped195" depart="659.79" type="ped_pedestrian">
        <walk from="-544115701#4" to="779854519#6"/>
    </person>
    <person id="ped196" depart="663.18" type="ped_pedestrian">
        <walk from="405988503" to="-803188454#1"/>
    </person>
    <person id="ped197" depart="666.56" type="ped_pedestrian">
        <walk from="638752898" to="-158364460#2"/>
    </person>
    <person id="ped198" depart="669.94" type="ped_pedestrian">
        <walk from="935336036#2" to="935336042#2"/>
    </person>
    <person id="ped199" depart="673.33" type="ped_pedestrian">
        <walk from="-30337722#9" to="286652481#3"/>
    </person>
    <person id="ped200" depart="676.71" type="ped_pedestrian">
        <walk from="-497786980#1" to="935662969#1"/>
    </person>
    <person id="ped201" depart="680.09" type="ped_pedestrian">
        <walk from="-923037130#1" to="935662893#2"/>
    </person>
    <person id="ped202" depart="683.48" type="ped_pedestrian">
        <walk from="30337726#3" to="935336062#7"/>
    </person>
    <person id="ped203" depart="686.86" type="ped_pedestrian">
        <walk from="676343470#1" to="973076006#1"/>
    </person>
    <person id="ped204" depart="690.25" type="ped_pedestrian">
        <walk from="935662926#7" to="544316445#1"/>
    </person>
    <person id="ped205" depart="693.63" type="ped_pedestrian">
        <walk from="856344519#1" to="443714807#3"/>
    </person>
    <person id="ped206" depart="697.01" type="ped_pedestrian">
        <walk from="935336086#0" to="489724729"/>
    </person>
    <person id="ped207" depart="700.40" type="ped_pedestrian">
        <walk from="935662933#0" to="923037129#3"/>
    </person>
    <person id="ped208" depart="703.78" type="ped_pedestrian">
        <walk from="35972288#1" to="-987497778#1"/>
    </person>
    <person id="ped209" depart="707.16" type="ped_pedestrian">
        <walk from="-916588320" to="581609201#0"/>
    </person>
    <person id="ped210" depart="710.55" type="ped_pedestrian">
        <walk from="935336041#2" to="451850884#1"/>
    </person>
    <person id="ped211" depart="713.93" type="ped_pedestrian">
        <walk from="565404064#2" to="158364458#0"/>
    </person>
    <person id="ped212" depart="717.31" type="ped_pedestrian">
        <walk from="-257102726#8" to="161763716#3"/>
    </person>
    <person id="ped213" depart="720.70" type="ped_pedestrian">
        <walk from="138197699" to="220880238#0"/>
    </person>
    <person id="ped214" depart="724.08" type="ped_pedestrian">
        <walk from="457390651#0" to="-452376283"/>
    </person>
    <person id="ped215" depart="727.46" type="ped_pedestrian">
        <walk from="-618056550" to="779854519#1"/>
    </person>
    <person id="ped216" depart="730.85" type="ped_pedestrian">
        <walk from="804694984" to="-256727231#8"/>
    </person>
    <person id="ped217" depart="734.23" type="ped_pedestrian">
        <walk from="266145024#0" to="463062541"/>
    </person>
    <person id="ped218" depart="737.61" type="ped_pedestrian">
        <walk from="271169358#1" to="-544316449#0"/>
    </person>
    <person id="ped219" depart="741.00" type="ped_pedestrian">
        <walk from="272396576" to="935662938#4"/>
    </person>
    <person id="ped220" depart="744.38" type="ped_pedestrian">
        <walk from="537346909" to="779854519#4"/>
    </person>
    <person id="ped221" depart="747.77" type="ped_pedestrian">
        <walk from="935662894#8" to="935336041#2"/>
    </person>
    <person id="ped222" depart="751.15" type="ped_pedestrian">
        <walk from="257102726#14" to="-158364460#2"/>
    </person>
    <person id="ped223" depart="754.53" type="ped_pedestrian">
        <walk from="246449112" to="935336037#0"/>
    </person>
    <person id="ped224" depart="757.92" type="ped_pedestrian">
        <walk from="935662894#2" to="935662966#1"/>
    </person>
    <person id="ped225" depart="761.30" type="ped_pedestrian">
        <walk from="287246265#0" to="-220354666"/>
    </person>
    <person id="ped226" depart="764.68" type="ped_pedestrian">
        <walk from="225796776#0" to="702921476#1"/>
    </person>
    <person id="ped227" depart="768.07" type="ped_pedestrian">
        <walk from="266143791#1" to="-496713212#16"/>
    </person>
    <person id="ped228" depart="771.45" type="ped_pedestrian">
        <walk from="330321634#2" to="-430282964#2"/>
    </person>
    <person id="ped229" depart="774.83" type="ped_pedestrian">
        <walk from="544316506#1" to="-220354663"/>
    </person>
    <person id="ped230" depart="778.22" type="ped_pedestrian">
        <walk from="257131825#0" to="496713212#17"/>
    </person>
    <person id="ped231" depart="781.60" type="ped_pedestrian">
        <walk from="-220354664" to="588543691#0"/>
    </person>