<?xml version="1.0" encoding="UTF-8"?>

<!-- generated on 2021-11-04 09:21:58 by Eclipse SUMO duarouter Version 1.10.0
<configuration xmlns:xsi="http://www.w3.org/2001/XMLSchema-instance" xsi:noNamespaceSchemaLocation="http://sumo.dlr.de/xsd/duarouterConfiguration.xsd">

    <input>
        <net-file value="map.net.xml"/>
        <route-files value="trips.trips.xml"/>
    </input>

    <output>
        <output-file value="map.rou.xml"/>
        <alternatives-output value="map.rou.alt.xml"/>
    </output>

    <time>
        <begin value="0"/>
        <end value="100"/>
    </time>

    <report>
        <no-warnings value="true"/>
        <ignore-errors value="true"/>
        <no-step-log value="true"/>
    </report>

</configuration>
-->

<routes xmlns:xsi="http://www.w3.org/2001/XMLSchema-instance" xsi:noNamespaceSchemaLocation="http://sumo.dlr.de/xsd/routes_file.xsd">
    <vehicle id="0" depart="0.00">
        <route edges="256727249#6 -256727249#6 -256727249#5 -256727249#4"/>
    </vehicle>
    <vehicle id="1" depart="1.00">
        <route edges="-35953176#2 -35953176#1"/>
    </vehicle>
    <vehicle id="2" depart="2.00">
        <route edges="29252057#2 29252057#3 29252057#4 29252057#5 29252057#6 29252057#7 29252089#0 29252089#1 29252090#0 29252090#1"/>
    </vehicle>
    <vehicle id="3" depart="3.00">
        <route edges="52246109#0 52246109#1 52246109#2 -29252057#1 -29252057#0"/>
    </vehicle>
    <vehicle id="4" depart="4.00">
        <route edges="160244944#4 160244944#5 160244944#6 160244944#7 160244944#8 160244944#9 160244944#10 328894973 28507753#0 28507753#1 28507753#2 256727249#0 256727249#1 256727249#2 256727249#3 256727249#4 -256727249#4"/>
    </vehicle>
    <vehicle id="5" depart="5.00">
        <route edges="-29252090#2 29252090#2 29252090#3 29252090#4 -375910967#3 -375910967#2 -375910967#1 -375910967#0 -28507754#3 -28507754#2 -28507754#1 -28507754#0 256727249#0 256727249#1 256727249#2 256727249#3 256727249#4 256727249#5"/>
    </vehicle>
    <vehicle id="6" depart="6.00">
        <route edges="-256727249#4 256727249#4 256727249#5 256727249#6 256727252 328894974#0 328894974#1 -328894974#1"/>
    </vehicle>
    <vehicle id="7" depart="7.00">
        <route edges="28507753#2 28507754#0 28507754#1 28507754#2 28507754#3"/>
    </vehicle>
    <vehicle id="8" depart="8.00">
        <route edges="-29252090#2 29252090#2 29252090#3 29252090#4 -375910967#3 -375910967#2 -29252057#3 -29252057#2 29252057#2"/>
    </vehicle>
    <vehicle id="9" depart="9.00">
        <route edges="29548788#0 29548788#1 -256727252 -256727249#6 -256727249#5 -256727249#4 -256727249#3 -256727249#2 -256727249#1"/>
    </vehicle>
    <vehicle id="10" depart="10.00">
        <route edges="29548788#0 29548788#1 -256727252 -256727249#6 -256727249#5 -256727249#4 -256727249#3 -256727249#2 -256727249#1 -256727249#0 28507754#0 28507754#1 28507754#2 28507754#3 375910967#0 375910967#1 375910967#2 375910967#3 -29252090#4 -29252090#3 29252090#3"/>
    </vehicle>
    <vehicle id="11" depart="11.00">
        <route edges="-52246109#2 52246109#2 29252057#2 29252057#3 29252057#4 29252057#5 29252057#6 -29252057#6"/>
    </vehicle>
    <vehicle id="13" depart="13.00">
        <route edges="-286896819#1 -286896819#0 -256727249#4 -256727249#3 -256727249#2 -256727249#1 -256727249#0 28507754#0 28507754#1 28507754#2 28507754#3 375910967#0 375910967#1 -29252057#3 -29252057#2 -29252057#1 -29252057#0"/>
    </vehicle>
    <vehicle id="14" depart="14.00">
        <route edges="35953176#1 -35953176#1 -35953176#0 -375910967#4 -375910967#3 -375910967#2 -29252057#3 -29252057#2 29252057#2"/>
    </vehicle>
    <vehicle id="15" depart="15.00">
        <route edges="29548788#0 29548788#1 -256727252 -256727249#6 -256727249#5 -256727249#4 -256727249#3 -256727249#2 -256727249#1 -256727249#0 -28507753#2 -28507753#1 -28507753#0 -328894973 328894972#0 328894972#1"/>
    </vehicle>
    <vehicle id="16" depart="16.00">
        <route edges="256727234#0 256727234#1 256727234#2 256727234#3 540335839#0 540335839#1 540335839#2 540335839#3 540335839#4 540335839#5 540335839#6 540335839#7"/>
    </vehicle>
    <vehicle id="17" depart="17.00">
        <route edges="160244944#0 160244944#1 160244944#2 160244944#3 160244944#4 160244944#5 160244944#6 160244944#7 160244944#8 160244944#9 160244944#10 328894973 28507753#0 28507753#1 28507753#2 256727249#0 256727249#1 256727249#2 256727249#3 256727249#4 286896819#0 286896819#1"/>
    </vehicle>
    <vehicle id="18" depart="18.00">
        <route edges="328894974#1 -328894974#1 -328894974#0 -256727252 -256727249#6 -256727249#5 -256727249#4 -256727249#3 -256727249#2 -256727249#1 -256727249#0 28507754#0 28507754#1 28507754#2 28507754#3 375910967#0 375910967#1 29252057#4 29252057#5"/>
    </vehicle>
    <vehicle id="19" depart="19.00">
        <route edges="35953176#3 -35953176#3 -35953176#2 -35953176#1 -35953176#0 -375910967#4 -375910967#3 -375910967#2 -375910967#1 -375910967#0 -28507754#3 -28507754#2 -28507754#1 -28507754#0 256727249#0 256727249#1 256727249#2 256727249#3 256727249#4 286896819#0 286896819#1"/>
    </vehicle>
    <vehicle id="20" depart="20.00">
        <route edges="29252057#1 29252057#2 29252057#3 -375910967#1 -375910967#0 -28507754#3 -28507754#2 -28507754#1 -28507754#0 256727249#0 256727249#1 256727249#2 256727249#3 256727249#4 256727249#5 256727249#6 -256727249#6 -256727249#5"/>
    </vehicle>
    <vehicle id="21" depart="21.00">
        <route edges="-29252090#3 29252090#3 29252090#4 -375910967#3 -375910967#2 -375910967#1 -375910967#0 -28507754#3 -28507754#2 -28507754#1 -28507754#0 256727249#0 256727249#1 94874369#0 94874369#1 -94874369#1"/>
    </vehicle>
    <vehicle id="22" depart="22.00">
        <route edges="-286896819#1 -286896819#0 -256727249#4 -256727249#3 -256727249#2 -256727249#1 -256727249#0 28507754#0 28507754#1 28507754#2 28507754#3 375910967#0 375910967#1 375910967#2 375910967#3 375910967#4 35953176#0 35953176#1 35953176#2 -35953176#2"/>
    </vehicle>
    <vehicle id="23" depart="23.00">
        <route edges="-286896819#1 -286896819#0 -256727249#4 -256727249#3 -256727249#2 -256727249#1 -256727249#0 28507754#0 28507754#1 28507754#2 28507754#3 375910967#0 375910967#1 -29252057#3 -29252057#2 -52246109#2"/>
    </vehicle>
    <vehicle id="24" depart="24.00">
        <route edges="256727249#5 256727249#6 -256727249#6 -256727249#5 -256727249#4 -256727249#3 -256727249#2 -256727249#1 -256727249#0 -28507753#2 -28507753#1 -28507753#0 540335839#0 540335839#1 540335839#2 -257102730 160244944#9"/>
    </vehicle>
    <vehicle id="25" depart="25.00">
        <route edges="160244944#0 160244944#1 160244944#2 160244944#3 160244944#4 160244944#5 160244944#6 160244944#7 160244944#8 160244944#9 160244944#10 328894973 28507753#0 28507753#1 28507753#2 256727249#0 256727249#1 256727249#2 256727249#3 256727249#4 256727249#5 256727249#6 256727252 328894974#0 328894974#1 328894974#2 -328894974#2"/>
    </vehicle>
    <vehicle id="26" depart="26.00">
        <route edges="-35953176#1 -35953176#0 -375910967#4 -375910967#3 -375910967#2 -375910967#1 -375910967#0 -28507754#3 -28507754#2 -28507754#1 -28507754#0 -28507753#2 -28507753#1 -28507753#0 540335839#0 540335839#1 540335839#2 540335839#3 540335839#4"/>
    </vehicle>
    <vehicle id="27" depart="27.00">
        <route edges="28507753#2 28507754#0 28507754#1 28507754#2 28507754#3 375910967#0 375910967#1 -29252057#3 -29252057#2 29252057#2"/>
    </vehicle>
    <vehicle id="28" depart="28.00">
        <route edges="-29252089#1 -29252089#0 29252057#8 29252057#9 29252057#10 29252057#11 160244944#6 160244944#7 160244944#8 160244944#9 160244944#10 328894972#0 328894972#1"/>
    </vehicle>
    <vehicle id="29" depart="29.00">
        <route edges="-29252057#7 -29252057#6 -29252057#5 -29252057#4 -375910967#1 -375910967#0 -28507754#3 -28507754#2 -28507754#1 -28507754#0 256727249#0 256727249#1 256727249#2 256727249#3 256727249#4 256727249#5 256727249#6 163855476#0 163855476#1"/>
    </vehicle>
    <vehicle id="30" depart="30.00">
        <route edges="94874369#1 94874369#2 286363350#0 286363350#1 256727234#2 256727234#3 540335839#0 540335839#1 540335839#2 540335839#3 540335839#4 540335839#5 -29252057#10 -29252057#9 -29252057#8 29252089#0 29252089#1"/>
    </vehicle>
    <vehicle id="31" depart="31.00">
        <route edges="256727234#1 256727234#2 256727234#3 540335839#0 540335839#1 540335839#2 540335839#3 540335839#4 540335839#5 -29252057#10 -29252057#9 -29252057#8 29252089#0 29252089#1 29252090#0 29252090#1 29252090#2"/>
    </vehicle>
    <vehicle id="32" depart="32.00">
        <route edges="328894974#3 -328894974#3 -328894974#2 328894974#2"/>
    </vehicle>
    <vehicle id="33" depart="33.00">
        <route edges="-29252090#3 29252090#3 29252090#4 -375910967#3 -375910967#2 -375910967#1 -375910967#0 -28507754#3 -28507754#2 -28507754#1 -28507754#0 256727249#0 256727249#1 256727249#2 256727249#3 256727249#4 -256727249#4"/>
    </vehicle>
    <vehicle id="34" depart="34.00">
        <route edges="-375910967#5 -375910967#4 -375910967#3 -375910967#2 -29252057#3 -29252057#2 -52246109#2 -52246109#1 -52246109#0"/>
    </vehicle>
    <vehicle id="35" depart="35.00">
        <route edges="-29252090#1 -29252090#0 -29252089#1 -29252089#0 29252057#8 29252057#9 29252057#10 29252057#11 160244944#6 160244944#7 160244944#8 257102730 540335839#3 540335839#4"/>
    </vehicle>
    <vehicle id="37" depart="37.00">
        <route edges="28507754#2 -28507754#2 -28507754#1 -28507754#0 256727249#0 256727249#1 256727249#2 256727249#3 256727249#4 256727249#5 256727249#6 163855476#0 163855476#1"/>
    </vehicle>
    <vehicle id="38" depart="38.00">
        <route edges="540335839#1 540335839#2 -257102730 160244944#9 160244944#10 328894973 28507753#0 28507753#1 28507753#2 256727249#0 256727249#1 94874369#0 94874369#1 94874369#2 286363350#0 286363350#1 256727234#2"/>
    </vehicle>
    <vehicle id="39" depart="39.00">
        <route edges="-35953176#1 -35953176#0 -375910967#4 -375910967#3 -375910967#2 -375910967#1 -375910967#0"/>
    </vehicle>
    <vehicle id="40" depart="40.00">
        <route edges="256727234#1 256727234#2 256727234#3 28507753#0 28507753#1 28507753#2 28507754#0 28507754#1 28507754#2 28507754#3 375910967#0 375910967#1 375910967#2 375910967#3 375910967#4 -375910967#4"/>
    </vehicle>
    <vehicle id="41" depart="41.00">
        <route edges="256727234#2 256727234#3 540335839#0 540335839#1 540335839#2 540335839#3 540335839#4 540335839#5 540335839#6 540335839#7 540335839#8 540335839#9 540335839#10 540335839#11"/>
    </vehicle>
    <vehicle id="42" depart="42.00">
        <route edges="160244944#0 160244944#1 160244944#2 160244944#3 160244944#4 160244944#5 -29252057#11 -29252057#10 -29252057#9 -29252057#8 -29252057#7 -29252057#6 -29252057#5 -29252057#4 375910967#2 375910967#3 375910967#4 35953176#0 35953176#1 -35953176#1"/>
    </vehicle>
    <vehicle id="43" depart="43.00">
        <route edges="94874369#3 -94874369#3 -94874369#2 -94874369#1 -94874369#0 256727249#2 256727249#3 256727249#4 256727249#5"/>
    </vehicle>
    <vehicle id="44" depart="44.00">
        <route edges="-286896819#1 -286896819#0 256727249#5 256727249#6 -256727249#6"/>
    </vehicle>
    <vehicle id="45" depart="45.00">
        <route edges="-29252057#1 29252057#1 29252057#2 29252057#3 29252057#4 29252057#5 29252057#6 29252057#7"/>
    </vehicle>
    <vehicle id="46" depart="46.00">
        <route edges="29548788#0 29548788#1 -256727252 163855476#0 163855476#1"/>
    </vehicle>
    <vehicle id="47" depart="47.00">
        <route edges="-28507754#2 -28507754#1 -28507754#0 256727249#0 256727249#1 256727249#2 256727249#3 256727249#4 256727249#5 256727249#6 163855476#0 163855476#1"/>
    </vehicle>
    <vehicle id="48" depart="48.00">
        <route edges="94874369#3 -94874369#3 286363350#0 286363350#1 256727234#2 256727234#3 28507753#0 28507753#1 28507753#2"/>
    </vehicle>
    <vehicle id="50" depart="50.00">
        <route edges="-256727249#2 -256727249#1 -256727249#0 -28507753#2 -28507753#1 -28507753#0 -328894973 328894972#0 328894972#1"/>
    </vehicle>
    <vehicle id="51" depart="51.00">
        <route edges="29252057#0 29252057#1 29252057#2 29252057#3 -375910967#1 -375910967#0 -28507754#3 -28507754#2 28507754#2"/>
    </vehicle>
    <vehicle id="52" depart="52.00">
        <route edges="-35953176#1 -35953176#0 -375910967#4 -375910967#3 -375910967#2 29252057#4 29252057#5 29252057#6 29252057#7 29252089#0 29252089#1"/>
    </vehicle>
    <vehicle id="54" depart="54.00">
        <route edges="160244944#7 160244944#8 257102730 540335839#3 540335839#4"/>
    </vehicle>
    <vehicle id="55" depart="55.00">
        <route edges="375910967#0 375910967#1 375910967#2 375910967#3 375910967#4 -375910967#4"/>
    </vehicle>
    <vehicle id="56" depart="56.00">
        <route edges="162974880#0 162974880#1 -256727249#6 -256727249#5 -256727249#4 -256727249#3 -256727249#2 -256727249#1 -256727249#0 28507754#0 28507754#1 28507754#2 28507754#3 375910967#0 375910967#1 375910967#2 375910967#3 -29252090#4 -29252090#3 -29252090#2 -29252090#1"/>
    </vehicle>
    <vehicle id="57" depart="57.00">
        <route edges="540335839#1 540335839#2 540335839#3 540335839#4 540335839#5 -29252057#10 -29252057#9 -29252057#8 -29252057#7 -29252057#6 -29252057#5 -29252057#4 -29252057#3 -29252057#2 -52246109#2 52246109#2"/>
    </vehicle>
    <vehicle id="58" depart="58.00">
        <route edges="-375910967#0 -28507754#3 28507754#3 375910967#0 375910967#1 29252057#4 29252057#5 29252057#6 29252057#7 29252089#0 29252089#1"/>
    </vehicle>
    <vehicle id="59" depart="59.00">
        <route edges="256727249#2 -256727249#2 -256727249#1 -256727249#0 -28507753#2 -28507753#1 -28507753#0 540335839#0 540335839#1 540335839#2 540335839#3 540335839#4 540335839#5 -29252057#10 -29252057#9 -29252057#8 -29252057#7 -29252057#6"/>
    </vehicle>
    <vehicle id="60" depart="60.00">
        <route edges="29252057#9 29252057#10 29252057#11 160244944#6 160244944#7 160244944#8 160244944#9 160244944#10 328894973 28507753#0 28507753#1 28507753#2 28507754#0 28507754#1 28507754#2"/>
    </vehicle>
    <vehicle id="61" depart="61.00">
        <route edges="29252090#2 29252090#3 29252090#4 -375910967#3 -375910967#2 -375910967#1 -375910967#0 -28507754#3 -28507754#2 -28507754#1 -28507754#0 28507754#0 28507754#1"/>
    </vehicle>
    <vehicle id="63" depart="63.00">
        <route edges="-256727249#4 -256727249#3 -256727249#2 -256727249#1 -256727249#0 -28507753#2 -28507753#1 -28507753#0 540335839#0 540335839#1 540335839#2 540335839#3 540335839#4 540335839#5 540335839#6 540335839#7 540335839#8 540335839#9 540335839#10 540335839#11"/>
    </vehicle>
    <vehicle id="64" depart="64.00">
        <route edges="375910967#0"/>
    </vehicle>
    <vehicle id="65" depart="65.00">
        <route edges="-375910967#3 -375910967#2 -375910967#1 -375910967#0 -28507754#3 -28507754#2 -28507754#1 -28507754#0 -28507753#2"/>
    </vehicle>
    <vehicle id="66" depart="66.00">
        <route edges="375910967#0 375910967#1 -375910967#1 -375910967#0 -28507754#3 -28507754#2 -28507754#1 -28507754#0 -28507753#2 -28507753#1 -28507753#0 540335839#0 540335839#1 540335839#2 540335839#3 540335839#4"/>
    </vehicle>
    <vehicle id="67" depart="67.00">
        <route edges="-286896819#1 -286896819#0 -256727249#4 -256727249#3 -256727249#2 256727249#2"/>
    </vehicle>
    <vehicle id="68" depart="68.00">
        <route edges="-28507754#2 -28507754#1 -28507754#0 -28507753#2 -28507753#1 -28507753#0 -328894973 328894972#0 328894972#1"/>
    </vehicle>
    <vehicle id="69" depart="69.00">
        <route edges="29252089#1 -29252089#1 -29252089#0 -29252057#7 -29252057#6 -29252057#5 -29252057#4 -29252057#3 -29252057#2"/>
    </vehicle>
    <vehicle id="70" depart="70.00">
        <route edges="162974880#0 162974880#1 -256727249#6 -256727249#5 286896819#0 286896819#1"/>
    </vehicle>
    <vehicle id="71" depart="71.00">
        <route edges="-35953176#1 -35953176#0 -375910967#4 -375910967#3 -375910967#2 -29252057#3 -29252057#2 -52246109#2 52246109#2"/>
    </vehicle>
    <vehicle id="72" depart="72.00">
        <route edges="160244944#4 160244944#5 160244944#6 160244944#7 160244944#8 160244944#9 160244944#10 328894973 28507753#0 28507753#1 28507753#2 256727249#0 256727249#1 256727249#2 256727249#3 256727249#4 256727249#5 256727249#6 256727252 328894974#0 328894974#1 328894974#2 -328894974#2"/>
    </vehicle>
    <vehicle id="73" depart="73.00">
        <route edges="256727234#0 256727234#1 256727234#2 256727234#3 -328894973 328894972#0 328894972#1"/>
    </vehicle>
    <vehicle id="75" depart="75.00">
        <route edges="94874369#2 286363350#0 286363350#1 256727234#2 256727234#3 540335839#0 540335839#1 540335839#2 540335839#3 540335839#4 540335839#5 -29252057#10 -29252057#9 -29252057#8 29252089#0 29252089#1 29252089#2"/>
    </vehicle>
    <vehicle id="76" depart="76.00">
        <route edges="160244944#4 160244944#5 160244944#6 160244944#7 160244944#8 160244944#9 160244944#10 328894973 28507753#0 28507753#1 28507753#2 256727249#0 256727249#1 256727249#2 256727249#3 256727249#4 256727249#5 256727249#6"/>
    </vehicle>
    <vehicle id="77" depart="77.00">
        <route edges="-29252057#2 29252057#2 29252057#3 375910967#2 375910967#3 375910967#4 35953176#0 35953176#1 -35953176#1"/>
    </vehicle>
    <vehicle id="78" depart="78.00">
        <route edges="-52246109#1 52246109#1 52246109#2 29252057#2"/>
    </vehicle>
    <vehicle id="79" depart="79.00">
        <route edges="-29252090#3 29252090#3 29252090#4 375910967#4 35953176#0 35953176#1 -35953176#1"/>
    </vehicle>
    <vehicle id="80" depart="80.00">
        <route edges="-28507754#2 28507754#2 28507754#3 375910967#0 375910967#1 29252057#4 29252057#5 29252057#6 29252057#7"/>
    </vehicle>
    <vehicle id="81" depart="81.00">
        <route edges="-29252090#3 -29252090#2 -29252090#1 -29252090#0 -29252089#1 -29252089#0 29252057#8 29252057#9 29252057#10 540335839#6 540335839#7 540335839#8 540335839#9 540335839#10 540335839#11"/>
    </vehicle>
    <vehicle id="82" depart="82.00">
        <route edges="35953176#2 -35953176#2 -35953176#1 -35953176#0 -375910967#4 -375910967#3 -375910967#2 -375910967#1 -375910967#0 -28507754#3 -28507754#2"/>
    </vehicle>
    <vehicle id="83" depart="83.00">
        <route edges="-328894974#1 -328894974#0 -256727252 -256727249#6 -256727249#5 -256727249#4 -256727249#3 -256727249#2 -256727249#1 -256727249#0 -28507753#2 -28507753#1 -28507753#0 540335839#0 540335839#1 540335839#2 540335839#3 540335839#4 540335839#5 -29252057#10 -29252057#9 -29252057#8 29252089#0 29252089#1 29252089#2"/>
    </vehicle>
    <vehicle id="84" depart="84.00">
        <route edges="-29252090#1 -29252090#0 -29252089#1 -29252089#0 -29252057#7 -29252057#6 -29252057#5 -29252057#4 -29252057#3 -29252057#2"/>
    </vehicle>
    <vehicle id="85" depart="85.00">
        <route edges="540335839#4 540335839#5 29252057#11 160244944#6 160244944#7 160244944#8 160244944#9 160244944#10 328894973 28507753#0 28507753#1 28507753#2 256727249#0 256727249#1 256727249#2 256727249#3 256727249#4 286896819#0 286896819#1"/>
    </vehicle>
    <vehicle id="86" depart="86.00">
        <route edges="160244944#9 160244944#10 328894973 28507753#0 28507753#1 28507753#2 256727249#0 256727249#1 256727249#2 256727249#3 256727249#4 256727249#5 256727249#6 256727252 328894974#0 328894974#1 328894974#2 328894974#3 328894974#4"/>
    </vehicle>
    <vehicle id="87" depart="87.00">
        <route edges="29548788#0 29548788#1 -256727252 -256727249#6 -256727249#5 -256727249#4 -256727249#3 -256727249#2 -256727249#1 -256727249#0 28507754#0 28507754#1 28507754#2 28507754#3 375910967#0 375910967#1 375910967#2 375910967#3 -29252090#4 -29252090#3"/>
    </vehicle>
    <vehicle id="89" depart="89.00">
        <route edges="160244944#4 160244944#5 160244944#6 160244944#7 160244944#8 160244944#9 160244944#10 328894973 28507753#0 28507753#1 28507753#2 256727249#0 256727249#1 94874369#0 94874369#1 94874369#2 286363350#0 286363350#1 256727234#2"/>
    </vehicle>
    <vehicle id="90" depart="90.00">
        <route edges="29252057#2 29252057#3 29252057#4 29252057#5 29252057#6 29252057#7 29252089#0 29252089#1 29252089#2"/>
    </vehicle>
    <vehicle id="91" depart="91.00">
        <route edges="94874369#1 -94874369#1 -94874369#0 -256727249#1 -256727249#0 28507754#0 28507754#1 28507754#2 28507754#3 375910967#0 375910967#1 -29252057#3 -29252057#2 -29252057#1 -29252057#0"/>
    </vehicle>
    <vehicle id="92" depart="92.00">
        <route edges="160244944#0 160244944#1 160244944#2 160244944#3 160244944#4 160244944#5 160244944#6 160244944#7"/>
    </vehicle>
    <vehicle id="93" depart="93.00">
        <route edges="35953176#3 -35953176#3 -35953176#2 -35953176#1 -35953176#0 -375910967#4 -375910967#3 -375910967#2 -375910967#1 -375910967#0"/>
    </vehicle>
    <vehicle id="95" depart="95.00">
        <route edges="160244944#4 160244944#5 -29252057#11 -29252057#10 -29252057#9 -29252057#8 -29252057#7 -29252057#6 -29252057#5 -29252057#4 -29252057#3 -29252057#2 -52246109#2"/>
    </vehicle>
    <vehicle id="96" depart="96.00">
        <route edges="-328894974#3 -328894974#2 -328894974#1 -328894974#0 -256727252 -256727249#6 -256727249#5 -256727249#4 -256727249#3 -256727249#2 -256727249#1 -256727249#0 -28507753#2 -28507753#1 -28507753#0 540335839#0 540335839#1 540335839#2 540335839#3 540335839#4 540335839#5 540335839#6 540335839#7 540335839#8 540335839#9 540335839#10 540335839#11"/>
    </vehicle>
    <vehicle id="97" depart="97.00">
        <route edges="160244944#7 160244944#8 160244944#9 160244944#10 328894973 28507753#0 28507753#1 28507753#2 28507754#0 28507754#1 28507754#2 28507754#3 375910967#0 375910967#1 -29252057#3 -29252057#2 -52246109#2 -52246109#1 -52246109#0 52246109#0"/>
    </vehicle>
    <vehicle id="98" depart="98.00">
        <route edges="256727234#1 256727234#2 256727234#3 28507753#0 28507753#1 28507753#2 256727249#0 256727249#1 256727249#2 256727249#3 256727249#4 256727249#5 256727249#6 256727252 -256727252"/>
    </vehicle>
    <vehicle id="99" depart="99.00">
        <route edges="94874369#3 -94874369#3 -94874369#2 -94874369#1 -94874369#0 -256727249#1 -256727249#0 28507754#0 28507754#1 28507754#2 28507754#3 375910967#0 375910967#1 375910967#2 375910967#3"/>
    </vehicle>
</routes>
