<?xml version="1.0" encoding="UTF-8"?>

<!-- generated on 2021-10-29 11:49:52 by Eclipse SUMO polyconvert Version 1.10.0
<configuration xmlns:xsi="http://www.w3.org/2001/XMLSchema-instance" xsi:noNamespaceSchemaLocation="http://sumo.dlr.de/xsd/polyconvertConfiguration.xsd">

    <input>
        <net-file value="map.net.xml"/>
        <osm-files value="nthu.osm"/>
        <type-file value="typemap.xml"/>
    </input>

    <output>
        <output-file value="map.poly.xml"/>
    </output>

    <processing>
        <poi-layer-offset value="5"/>
    </processing>

    <report>
        <xml-validation value="never"/>
    </report>

</configuration>
-->

<additional xmlns:xsi="http://www.w3.org/2001/XMLSchema-instance" xsi:noNamespaceSchemaLocation="http://sumo.dlr.de/xsd/additional_file.xsd">
    <location netOffset="-296912.07,-2743306.91" convBoundary="-401.96,-676.08,1468.34,1097.94" origBoundary="120.987130,24.784969,121.005535,24.801126" projParameter="+proj=utm +zone=51 +ellps=WGS84 +datum=WGS84 +units=m +no_defs"/>

    <poly id="115786640" type="leisure" color="207,245,201" fill="1" layer="-2.00" shape="261.791148,585.553893 271.148440,580.186945 277.931177,580.630185 286.659524,582.706751 294.865533,588.469350 299.581693,595.568425 304.090390,656.704672 298.708648,665.569678 292.013178,671.063696 285.151135,673.480099 278.509126,675.040160 271.704443,673.788452 264.467976,669.994833 266.249442,690.055575 258.817464,690.851697 247.777388,577.561058 255.601664,576.615140 257.193324,590.640407 261.791148,585.553893"/>
    <poly id="163855480" type="amenity" color="237,199,199" fill="1" layer="-1.00" shape="1090.636962,634.270625 1073.520649,647.129371 1049.080518,652.971324 967.553810,650.176238 892.958451,632.433789 890.865454,661.470153 905.188420,688.537692 933.119407,721.488504 963.478300,756.564280 1014.036089,792.485567 1019.498797,810.542463 1016.520991,828.202194 960.065352,894.374719 994.388405,941.889973 1189.369515,785.211180 1117.081356,670.711360 1090.636962,634.270625"/>
    <poly id="163971184" type="amenity" color="237,199,199" fill="1" layer="-1.00" shape="323.513585,816.771185 313.952241,738.702308 314.954504,726.378396 321.070066,714.455787 337.363833,711.745754 350.441912,702.180518 379.864655,682.348437 367.394363,644.462838 321.256433,606.650718 242.782666,508.831500 204.950113,540.021940 241.009116,618.022695 248.134834,696.182738 212.998752,693.353110 200.964488,808.334576 183.650551,882.676944 323.513585,816.771185"/>
    <poly id="180365522" type="building" color="255,230,230" fill="1" layer="-1.00" shape="569.790678,475.611901 586.728368,462.998879 568.213141,438.397325 589.580474,422.317969 579.023327,408.645789 540.916888,437.778476 569.790678,475.611901"/>
    <poly id="180365523" type="building" color="255,230,230" fill="1" layer="-1.00" shape="358.439258,545.677709 406.335957,506.263094 414.895481,501.661363 395.644687,466.933193 396.162157,459.469181 394.459776,452.359062 391.682487,448.499902 382.677382,440.666055 360.193632,439.245663 346.457148,446.006374 342.662134,451.358046 342.153879,457.381610 344.533683,462.409933 348.587467,467.103450 343.068853,478.363583 339.502021,470.328024 335.645912,465.321384 310.270835,484.639811 358.439258,545.677709"/>
    <poly id="180365525" type="building" color="255,230,230" fill="1" layer="-1.00" shape="578.219861,517.966504 614.856618,490.007712 622.130123,484.605106 631.390546,473.999307 593.805295,423.507967 578.423521,434.635676 605.938835,472.256430 573.434185,495.778279 563.577860,482.306340 555.193611,471.283507 547.110991,477.373862 578.219861,517.966504"/>
    <poly id="180365526" type="building" color="255,230,230" fill="1" layer="-1.00" shape="519.845317,450.574084 577.619701,406.727491 567.297895,383.590096 518.151198,419.898036 491.921478,386.513040 476.608823,398.902898 488.177544,416.714924 519.845317,450.574084"/>
    <poly id="180370149" type="building" color="255,230,230" fill="1" layer="-1.00" shape="392.604900,602.245850 428.777738,574.415197 402.934725,541.190883 366.762002,569.032677 392.604900,602.245850"/>
    <poly id="180370150" type="building" color="255,230,230" fill="1" layer="-1.00" shape="517.791605,396.769610 561.110892,373.432452 545.991597,342.476946 502.078572,362.576604 517.791605,396.769610"/>
    <poly id="180522500" type="building" color="255,230,230" fill="1" layer="-1.00" shape="282.809075,381.185145 283.419288,335.285411 239.789499,334.718732 196.872097,333.765022 195.942815,374.451084 230.532597,375.150443 235.843750,362.851849 257.097157,363.126792 256.862065,380.857248 282.809075,381.185145"/>
    <poly id="180522503" type="building" color="255,230,230" fill="1" layer="-1.00" shape="275.673213,408.345807 273.910628,439.826049 225.395325,437.137500 226.795877,411.999966 214.187828,408.141263 214.070528,380.887713 222.713883,377.170984 233.274503,380.727399 232.505275,394.454972 244.904832,395.136974 243.254742,424.632364 260.654659,425.595449 261.674231,407.565403 275.673213,408.345807"/>
    <poly id="180522504" type="building" color="255,230,230" fill="1" layer="-1.00" shape="336.438521,365.030349 337.493142,415.492477 331.770405,415.609761 331.377735,396.448214 305.342500,396.996796 305.590141,409.036438 293.153713,409.285591 293.586186,429.776082 333.422685,428.947217 333.248326,420.518376 347.747365,420.227888 347.565369,411.278429 355.987770,411.110427 355.104144,364.711921 336.438521,365.030349"/>
    <poly id="180522506" type="building" color="255,230,230" fill="1" layer="-1.00" shape="448.691046,640.510441 480.642225,614.459197 458.544806,587.661250 441.924553,601.211540 426.583487,613.712692 437.817481,627.330505 448.691046,640.510441"/>
    <poly id="180522507" type="building" color="255,230,230" fill="1" layer="-1.00" shape="346.260072,583.404567 358.524616,574.216919 334.018897,541.848351 321.754173,551.024943 346.260072,583.404567"/>
    <poly id="180522519" type="amenity" color="237,199,199" fill="1" layer="-1.00" shape="466.912710,705.057264 492.407683,687.033629 466.304061,650.500316 440.798934,668.524145 466.912710,705.057264"/>
    <poly id="180522519#1" type="building" color="255,230,230" fill="1" layer="-1.00" shape="466.912710,705.057264 492.407683,687.033629 466.304061,650.500316 440.798934,668.524145 466.912710,705.057264"/>
    <poly id="180522520" type="building" color="255,230,230" fill="1" layer="-1.00" shape="284.915700,544.552835 318.068938,519.779839 289.199074,481.570131 256.045783,506.343193 284.915700,544.552835"/>
    <poly id="180522526" type="building" color="255,230,230" fill="1" layer="-1.00" shape="491.815195,610.140454 520.889662,586.535757 512.697030,576.163822 532.792977,559.615517 541.396989,552.531435 547.006210,548.128186 532.239666,529.487775 516.021819,542.212185 498.012493,557.599797 493.323772,551.674671 463.619393,575.776160 491.815195,610.140454"/>
    <poly id="180522529" type="landuse" color="194,194,130" fill="1" layer="-3.00" shape="482.917473,544.836316 532.972753,507.074552 442.538726,395.702445 389.338191,421.090726 482.917473,544.836316"/>
    <poly id="217686004" type="tourism" color="207,245,201" fill="1" layer="-2.00" shape="1134.065987,436.611647 1169.556896,447.781188 1151.608786,479.852433 1120.909980,476.157852 1118.827167,409.834277 1130.081918,305.302455 1186.080205,336.258890 1134.065987,436.611647"/>
    <poly id="217720162" type="building" color="255,230,230" fill="1" layer="-1.00" shape="904.975921,575.974742 912.026320,569.146327 879.170553,535.569672 872.110039,542.398252 904.975921,575.974742"/>
    <poly id="217720163" type="building" color="255,230,230" fill="1" layer="-1.00" shape="837.805613,588.747105 873.330237,555.963647 865.675254,547.755198 830.150786,580.549752 837.805613,588.747105"/>
    <poly id="217720164" type="building" color="255,230,230" fill="1" layer="-1.00" shape="913.531858,564.216132 921.923429,556.426337 892.004948,524.523934 883.613371,532.313747 913.531858,564.216132"/>
    <poly id="217720165" type="building" color="255,230,230" fill="1" layer="-1.00" shape="826.579640,575.649610 834.555124,567.766139 785.881764,519.043313 777.896163,526.926959 826.579640,575.649610"/>
    <poly id="217720166" type="building" color="255,230,230" fill="1" layer="-1.00" shape="841.848773,561.665358 850.326495,552.854956 801.524474,506.394146 793.046749,515.204579 841.848773,561.665358"/>
    <poly id="217720167" type="building" color="255,230,230" fill="1" layer="-1.00" shape="852.248232,552.173121 860.444090,544.142409 810.861617,494.114373 802.675865,502.144966 852.248232,552.173121"/>
    <poly id="217720168" type="building" color="255,230,230" fill="1" layer="-1.00" shape="864.214437,537.096115 872.313414,529.354893 826.789077,482.258779 818.690093,490.000027 864.214437,537.096115"/>
    <poly id="217720169" type="building" color="255,230,230" fill="1" layer="-1.00" shape="876.557512,524.960704 884.657314,517.274875 840.668069,471.408198 832.568260,479.094052 876.557512,524.960704"/>
    <poly id="217720170" type="building" color="255,230,230" fill="1" layer="-1.00" shape="894.501841,512.012031 902.650434,504.203627 851.140822,451.034983 842.982109,458.843565 894.501841,512.012031"/>
    <poly id="220023250" type="amenity" color="237,199,199" fill="0" layer="-1.00" shape="692.096282,520.395838 668.847059,545.388274 623.562237,587.079209 479.757973,706.497387 470.980084,713.440039 462.723365,714.547300 423.602846,660.755135 386.571525,644.569005 367.394363,644.462838 321.256433,606.650718 244.486712,506.413316 203.480166,540.475639 212.004475,562.387255 204.829354,591.675798 190.424040,626.543832 170.994431,651.237312 147.305073,665.479110 134.032277,686.558895 126.016092,712.968148 129.758847,727.460357 131.129079,737.422741 131.413296,747.811030 127.368192,749.211112 121.197682,744.316115 111.199354,737.715783 91.657169,735.477054 77.136243,737.009053 74.539264,744.725267 70.692757,759.628227 64.834031,766.993559 57.875454,773.843259 47.991695,783.971175 34.763952,797.782333 18.391830,818.531150 8.469241,820.516313 1.019240,820.769955 -2.457610,803.049752 -18.155873,795.358960 -36.615452,795.209573 -56.626997,798.185285 -79.554915,811.219733 -96.611673,782.697580 -96.435353,776.124897 -102.435358,773.886541 -107.995346,769.248559 -114.470105,767.050436 -132.436670,717.269248 -128.834968,685.750707 -138.594025,650.761579 -161.476977,620.153694 -153.775978,533.897921 -180.482038,405.071998 -190.587614,345.879490 -257.471031,313.626210 -265.271265,292.867490 -263.886993,279.729079 -241.474182,259.821667 -235.863590,254.830862 -229.468524,244.045057 -222.106462,231.616344 -217.862913,224.451956 -217.741089,218.988015 -217.295378,199.116077 -223.050031,194.325877 -230.750253,187.913497 -237.447118,182.328381 -240.273091,174.492539 -243.457879,165.642676 -239.424879,156.542488 -234.755966,145.981535 -230.174791,135.643464 -229.327378,114.890338 -234.247011,112.547472 -235.091523,112.205367 -235.537754,112.123303 -235.750758,112.082122 -236.135501,112.054549 -247.451117,108.077488 -254.283211,109.108773 -265.848349,110.852376 -275.259143,113.971342 -295.771531,120.777091 -299.836251,114.676814 -308.834523,101.170611 -313.457538,94.247605 -324.498412,86.266889 -328.280968,83.530603 -327.635688,72.408447 -326.649418,55.597529 -325.609167,37.644638 -349.759279,19.974231 -369.989283,-16.511347 -385.058882,-32.254728 -387.036738,-71.070007 -387.312519,-83.607839 -387.600542,-96.976447 -387.414032,-103.538208 -387.105577,-114.865913 -389.026945,-120.332990 -392.099178,-129.084772 -394.718295,-135.228490 -401.957820,-152.228422 -340.504107,-507.974037 -308.034017,-529.802278 -118.456176,-662.509818 -95.586775,-670.756949 -71.625749,-674.931804 -42.063912,-675.167173 76.052256,-676.083930 72.319373,-526.114039 74.917175,-436.087974 100.463078,-380.579103 131.685592,-327.646486 158.450468,-273.130436 199.836238,-219.593647 232.141543,-205.820178 296.862745,-175.549130 311.073958,-161.044425 331.559220,-154.586815 348.798709,-145.998602 356.358817,-142.231821 385.327871,-83.548706 448.428445,-50.616342 495.533482,-52.470875 515.566860,-36.810520 538.877847,-45.927331 555.947113,-5.483251 563.113416,3.164324 577.814168,-8.917272 586.994531,-2.936110 614.751831,-25.424297 627.184257,-47.355349 681.377002,-84.556556"/>
    <poly id="225932196" type="residential" color="235,235,227" fill="0" layer="-3.00" shape="692.096282,520.395838 656.388198,475.815365"/>
    <poly id="225951775" type="building" color="255,230,230" fill="1" layer="-1.00" shape="946.277221,354.038093 936.197191,331.484138 950.903372,319.779548 993.078793,361.263556 946.994412,403.020392 937.590681,391.425072 960.614653,369.649458 946.277221,354.038093"/>
    <poly id="225951775#1" type="shop" color="237,199,255" fill="1" layer="-1.00" shape="946.277221,354.038093 936.197191,331.484138 950.903372,319.779548 993.078793,361.263556 946.994412,403.020392 937.590681,391.425072 960.614653,369.649458 946.277221,354.038093"/>
    <poly id="225951776" type="parking" color="184,184,179" fill="1" layer="-1.00" shape="976.207807,331.485552 982.500040,326.053203 997.199575,342.911267 990.897233,348.343757 976.207807,331.485552"/>
    <poly id="225951791" type="building" color="255,230,230" fill="1" layer="-1.00" shape="1061.305403,395.020833 1049.771540,395.433365 1049.411577,384.658451 1097.183801,383.582717 1097.591317,401.757919 1061.538104,402.628922 1061.305403,395.020833"/>
    <poly id="225951791#1" type="shop" color="237,199,255" fill="1" layer="-1.00" shape="1061.305403,395.020833 1049.771540,395.433365 1049.411577,384.658451 1097.183801,383.582717 1097.591317,401.757919 1061.538104,402.628922 1061.305403,395.020833"/>
    <poly id="225951792" type="parking" color="184,184,179" fill="1" layer="-1.00" shape="1047.737374,383.597178 1047.256984,368.048838 1100.532850,366.394009 1099.095848,382.236302 1047.737374,383.597178"/>
    <poly id="225951795" type="parking" color="184,184,179" fill="1" layer="-1.00" shape="1020.943268,405.538613 1019.771838,371.110135 1045.034010,370.263997 1046.205376,404.692473 1020.943268,405.538613"/>
    <poly id="225951797" type="parking" color="184,184,179" fill="1" layer="-1.00" shape="966.970350,387.205778 1002.922131,354.527270 1015.179640,367.620886 1017.301779,390.302443 966.896793,391.162176 966.970350,387.205778"/>
    <poly id="254990717" type="building" color="255,230,230" fill="1" layer="-1.00" shape="332.326862,376.369533 332.358840,358.575593 309.577425,358.245422 309.399849,348.221197 295.362757,348.981347 294.610933,376.291968 332.326862,376.369533"/>
    <poly id="254990718" type="landuse" color="194,194,130" fill="1" layer="-3.00" shape="385.404707,405.991904 385.434166,375.622923 424.591060,389.118853 385.404707,405.991904"/>
    <poly id="254990720" type="landuse" color="194,194,130" fill="1" layer="-3.00" shape="285.640696,323.331373 341.638122,265.926579 344.532974,305.337703 358.465791,327.779337 371.195055,343.336207 393.240966,350.745916 414.223181,361.484004 440.902547,382.076685 285.640696,323.331373"/>
    <poly id="254990725" type="building" color="255,230,230" fill="1" layer="-1.00" shape="408.545031,640.191314 428.495538,625.461990 416.703531,609.658661 396.742899,624.388150 408.545031,640.191314"/>
    <poly id="255362014" type="building" color="255,230,230" fill="1" layer="-1.00" shape="1129.950119,741.508301 1160.915413,778.669586 1173.149722,771.543884 1113.651949,695.534905 1100.628553,704.721877 1115.464572,723.339645 1129.950119,741.508301"/>
    <poly id="255362318" type="amenity" color="237,199,199" fill="1" layer="-1.00" shape="1083.587318,692.296497 1103.940510,678.094115 1077.999069,646.997357 1060.920089,660.331986 1065.329713,667.247426 1053.275115,677.672229 1057.823339,683.001294 1070.306284,673.511970 1083.587318,692.296497"/>
    <poly id="255362318#1" type="building" color="255,230,230" fill="1" layer="-1.00" shape="1083.587318,692.296497 1103.940510,678.094115 1077.999069,646.997357 1060.920089,660.331986 1065.329713,667.247426 1053.275115,677.672229 1057.823339,683.001294 1070.306284,673.511970 1083.587318,692.296497"/>
    <poly id="255362324" type="building" color="255,230,230" fill="1" layer="-1.00" shape="1031.757518,709.053615 1050.526510,712.379675 1051.517645,706.160745 1054.645975,706.380862 1055.387773,701.783163 1035.452252,701.676097 1035.212805,703.973023 1033.198842,703.880629 1031.757518,709.053615"/>
    <poly id="255362344" type="leisure" color="207,245,201" fill="1" layer="-2.00" shape="1028.177582,716.673200 1040.609573,660.174999 986.636294,656.256382 986.330598,663.008171 985.673419,674.074966 977.111377,672.981597 971.282204,710.027601 1028.177582,716.673200"/>
    <poly id="255362385" type="leisure" color="207,245,201" fill="1" layer="-2.00" shape="948.707816,700.996118 960.142345,653.065671 921.719397,644.011471 910.284826,691.930880 948.707816,700.996118"/>
    <poly id="255362385#1" type="sport" color="79,230,125" fill="1" layer="-2.00" shape="948.707816,700.996118 960.142345,653.065671 921.719397,644.011471 910.284826,691.930880 948.707816,700.996118"/>
    <poly id="256091547" type="building" color="255,230,230" fill="1" layer="-1.00" shape="658.083017,842.428488 662.147941,834.103675 624.726253,816.072438 620.671456,824.397115 658.083017,842.428488"/>
    <poly id="256091550" type="building" color="255,230,230" fill="1" layer="-1.00" shape="544.957674,828.975745 550.256590,817.907263 493.162871,790.858363 487.863824,801.915792 544.957674,828.975745"/>
    <poly id="256091553" type="building" color="255,230,230" fill="1" layer="-1.00" shape="986.824749,836.292785 1000.288546,819.897673 940.800815,771.565405 927.327082,787.971800 986.824749,836.292785"/>
    <poly id="256091555" type="building" color="255,230,230" fill="1" layer="-1.00" shape="538.707905,841.409866 543.042388,832.161468 485.794568,805.635594 481.460112,814.884010 538.707905,841.409866"/>
    <poly id="256091559" type="building" color="255,230,230" fill="1" layer="-1.00" shape="643.522958,756.466790 666.228745,766.171699 686.574295,719.063090 663.878724,709.369073 643.522958,756.466790"/>
    <poly id="256091561" type="building" color="255,230,230" fill="1" layer="-1.00" shape="1022.417519,614.739051 1024.326221,598.657165 1056.087161,602.380284 1054.178423,618.462163 1022.417519,614.739051"/>
    <poly id="256091566" type="building" color="255,230,230" fill="1" layer="-1.00" shape="554.348091,808.640278 558.879137,799.001226 501.365398,772.279752 496.834543,781.929902 554.348091,808.640278"/>
    <poly id="256091573" type="building" color="255,230,230" fill="1" layer="-1.00" shape="602.434527,831.832975 606.615397,823.140823 568.840510,805.170308 564.659656,813.862472 602.434527,831.832975"/>
    <poly id="256091581" type="building" color="255,230,230" fill="1" layer="-1.00" shape="1015.722299,514.558054 1017.960576,493.352696 987.613318,490.185073 985.385360,511.401367 1015.722299,514.558054"/>
    <poly id="256091583" type="building" color="255,230,230" fill="1" layer="-1.00" shape="978.486441,576.936895 980.001781,560.240316 1010.656186,562.982400 1009.150922,579.678825 978.486441,576.936895"/>
    <poly id="256091587" type="building" color="255,230,230" fill="1" layer="-1.00" shape="1032.409128,549.047497 1033.881174,532.152137 1064.807661,534.823886 1063.335578,551.719241 1032.409128,549.047497"/>
    <poly id="256091589" type="building" color="255,230,230" fill="1" layer="-1.00" shape="560.628910,795.563109 566.233507,783.958342 517.335162,760.589318 511.720482,772.194256 560.628910,795.563109"/>
    <poly id="256091594" type="building" color="255,230,230" fill="1" layer="-1.00" shape="609.161867,819.546995 615.063008,807.472566 576.163161,788.654340 570.252093,800.740012 609.161867,819.546995"/>
    <poly id="256091598" type="building" color="255,230,230" fill="1" layer="-1.00" shape="1035.274765,515.424115 1037.254691,496.604599 1068.321135,499.850440 1066.331057,518.670096 1035.274765,515.424115"/>
    <poly id="256091600" type="building" color="255,230,230" fill="1" layer="-1.00" shape="569.234603,734.145820 623.776455,756.833964 633.197656,734.448433 601.530945,721.285305 622.405890,671.664891 599.520672,662.151021 569.234603,734.145820"/>
    <poly id="256091604" type="building" color="255,230,230" fill="1" layer="-1.00" shape="678.554293,702.517341 688.904384,677.946687 622.039010,650.098766 617.836630,660.087506 644.303990,671.111060 638.156347,685.693017 678.554293,702.517341"/>
    <poly id="256091608" type="tourism" color="207,245,201" fill="1" layer="-2.00" shape="454.409363,976.297588 469.721400,923.955440 425.326329,819.475052 501.093353,755.121807 501.458076,746.895565 490.081766,735.285166 481.467382,733.384078 381.599030,803.896933 284.163998,872.690783 75.949415,952.000018 69.462641,954.477499 82.475931,974.915932 170.175331,936.754112 207.340299,931.100186 263.936394,946.300280 298.245293,949.319407 390.539005,962.954108 454.409363,976.297588"/>
    <poly id="256900773" type="parking" color="184,184,179" fill="1" layer="-1.00" shape="1075.703969,484.630206 1101.241696,483.968469 1101.227960,404.917715 1073.572333,403.926372 1070.503872,438.904378 1075.703969,484.630206"/>
    <poly id="257013399" type="landuse" color="194,194,130" fill="1" layer="-3.00" shape="757.866771,656.372442 763.995294,632.196117 845.124097,649.232798 882.030013,663.117444 890.798258,683.120165 910.449830,707.339822 922.432961,725.190398 911.049506,764.854961 837.448285,747.973563 814.876565,853.004115 714.167713,828.288707 757.333860,675.215143 757.866771,656.372442"/>
    <poly id="257074759" type="amenity" color="237,199,199" fill="1" layer="-1.00" shape="1095.011010,564.107740 1092.552306,522.563017 1107.093479,521.707655 1109.552140,563.252377 1095.011010,564.107740"/>
    <poly id="257089982" type="residential" color="235,235,227" fill="0" layer="-3.00" shape="642.717540,479.483668 647.734010,482.933339 650.732826,473.627026 653.758362,470.281014 903.159286,134.246183 935.251228,101.092266 966.610171,77.964876 1025.882137,17.379809"/>
    <poly id="286366590" type="residential" color="235,235,227" fill="1" layer="-3.00" shape="817.620650,584.744065 892.116273,519.004795 839.922086,462.599973 767.430216,531.190778 817.620650,584.744065"/>
    <poly id="286896820" type="building" color="255,230,230" fill="1" layer="-1.00" shape="1050.471770,350.673730 1073.183692,351.792770 1078.492268,348.945263 1083.352996,351.433464 1088.050179,351.730354 1092.678715,350.100449 1095.935168,346.629294 1095.517045,340.863085 1093.743112,337.133150 1056.191042,312.997894 1045.190348,327.041269 1045.746177,347.053472 1047.341800,349.655920 1050.471770,350.673730"/>
    <poly id="287246253" type="amenity" color="237,199,199" fill="1" layer="-1.00" shape="598.709185,545.464058 624.375888,575.666620 666.536221,540.225942 640.869559,510.023305 598.709185,545.464058"/>
    <poly id="287246254" type="amenity" color="237,199,199" fill="1" layer="-1.00" shape="614.856618,490.007712 626.388993,486.049438 632.817066,480.238221 645.534668,497.789764 626.088079,511.735793 614.856618,490.007712"/>
    <poly id="297344660" type="building" color="255,230,230" fill="1" layer="-1.00" shape="1163.744561,784.710747 1125.493438,814.320349 1121.715528,809.101868 1116.059093,801.296153 1154.338660,772.938074 1163.744561,784.710747"/>
    <poly id="297345103" type="leisure" color="207,245,201" fill="1" layer="-2.00" shape="1039.427317,824.000189 1072.511461,852.521631 1094.452060,830.706639 1059.302252,798.559200 1039.427317,824.000189"/>
    <poly id="297345103#1" type="sport" color="79,230,125" fill="1" layer="-2.00" shape="1039.427317,824.000189 1072.511461,852.521631 1094.452060,830.706639 1059.302252,798.559200 1039.427317,824.000189"/>
    <poly id="302738219" type="building" color="255,230,230" fill="1" layer="-1.00" shape="1109.869375,818.559678 1121.715528,809.101868 1076.494414,753.580337 1062.220434,736.051237 1052.123543,743.411658 1074.946319,772.881023 1070.398317,776.548365 1071.794342,782.100836 1075.138096,785.985061 1080.468929,789.507827 1085.027040,785.840340 1109.869375,818.559678"/>
    <poly id="302738553" type="leisure" color="207,245,201" fill="1" layer="-2.00" shape="1017.885193,789.437799 974.932782,745.915508 1004.439983,722.826261 1044.914399,768.412429 1017.885193,789.437799"/>
    <poly id="302738553#1" type="sport" color="79,230,125" fill="1" layer="-2.00" shape="1017.885193,789.437799 974.932782,745.915508 1004.439983,722.826261 1044.914399,768.412429 1017.885193,789.437799"/>
    <poly id="316391999" type="building" color="255,230,230" fill="1" layer="-1.00" shape="222.085439,783.815691 222.185180,774.086526 316.123692,774.988612 316.024048,784.728849 222.085439,783.815691"/>
    <poly id="377273401" type="building" color="255,230,230" fill="1" layer="-1.00" shape="620.189271,383.988727 630.885022,369.871890 681.495036,407.818888 670.789158,421.935834 620.189271,383.988727"/>
    <poly id="405506807" type="military" color="153,153,92" fill="0" layer="-3.00" shape="973.161470,420.463919 982.945233,421.406461 1058.300589,417.068341 1064.321585,420.747201 1070.316447,497.284076 1087.124107,496.495242 1089.762339,565.514059 1102.342592,572.343194 1094.053774,598.910822 1073.137279,615.403793 1051.643199,629.744785 1016.158130,628.624441 979.410631,624.863631 978.274505,583.875659 973.841938,577.470227 961.884299,576.559530 962.411242,554.526103"/>
    <poly id="405506809" type="parking" color="184,184,179" fill="1" layer="-1.00" shape="1023.924404,441.303361 1041.076318,445.373262 1023.306841,584.291118 1053.448467,586.553307 1051.462277,598.725318 1021.324731,596.740059 1019.739456,618.334717 1006.700088,617.450898 1023.924404,441.303361"/>
    <poly id="405993438" type="building" color="255,230,230" fill="1" layer="-1.00" shape="1044.214812,480.836566 1046.014430,455.914985 1059.935440,456.907823 1058.135797,481.829401 1044.214812,480.836566"/>
    <poly id="430458659" type="landuse" color="194,194,130" fill="1" layer="-3.00" shape="516.021819,542.212185 509.457679,533.921432 538.614342,511.080060 573.546795,555.161983 552.855225,571.098519 549.049315,568.816613 543.696331,566.557407 538.111811,566.439916 532.792977,559.615517 541.396989,552.531435 547.006210,548.128186 532.239666,529.487775 516.021819,542.212185"/>
    <poly id="443714809" type="forest" color="140,196,107" fill="0" layer="-4.00" shape="973.161470,420.463919 963.936547,420.388470 946.290661,419.195440 926.885308,400.068599 909.252042,397.667781 894.754965,400.162437 896.432459,436.666434 890.632503,484.680585 924.027021,518.437732 916.950689,531.094248 945.370147,564.924294 962.411242,554.526103"/>
    <poly id="454412573" type="landuse" color="194,194,130" fill="1" layer="-3.00" shape="553.745186,590.396785 551.166849,594.578295 547.349089,597.692212 542.721825,599.399850 537.787872,599.505482 533.164520,598.033289 529.258994,595.165644 526.500531,591.206471 525.158207,586.572836 525.390849,581.749900 527.165653,577.258874 530.307600,573.578741 534.468310,571.091311 539.287668,570.067773 544.191425,570.660585 548.622628,572.822522 552.102296,576.305785 554.240500,580.728317 554.807637,585.605994 553.745186,590.396785"/>
    <poly id="457390650" type="residential" color="235,235,227" fill="0" layer="-3.00" shape="572.643917,279.188470 565.426070,293.908014 574.414609,308.888404 547.730068,325.854566 642.717540,479.483668"/>
    <poly id="513028597" type="building" color="255,230,230" fill="1" layer="-1.00" shape="1076.494414,753.580337 1115.464572,723.339645 1100.628553,704.721877 1062.220434,736.051237 1076.494414,753.580337"/>
    <poly id="545004237" type="tourism" color="207,245,201" fill="1" layer="-2.00" shape="1189.369515,785.211180 1205.796471,851.768134 1228.403827,839.571548 1204.383117,743.377667 1113.303207,610.871819 1090.636962,634.270625 1189.369515,785.211180"/>
    <poly id="676611833" type="leisure" color="207,245,201" fill="1" layer="-2.00" shape="264.114346,655.563597 258.726654,602.760878 261.614521,596.248089 265.888915,591.864329 273.174057,589.330911 281.606745,590.558705 285.992130,593.729457 291.495088,599.310176 296.121248,655.359264 293.751739,659.980936 287.837362,663.568908 279.733388,666.125431 273.462842,664.057080 267.706581,659.820696 264.114346,655.563597"/>
    <poly id="722953421" type="building" color="255,230,230" fill="1" layer="-1.00" shape="322.611820,589.446698 329.991490,584.396904 326.565949,579.782801 319.162149,584.567046 322.611820,589.446698"/>
    <poly id="727702101" type="amenity" color="237,199,199" fill="0" layer="-1.00" shape="642.717540,479.483668 649.867445,479.445297 656.388198,475.815365"/>
    <poly id="727702105" type="residential" color="235,235,227" fill="0" layer="-3.00" shape="656.388198,475.815365 942.298433,108.534111 978.732844,78.374627 1027.103074,28.241834 1059.325569,49.596587 1159.202886,116.029596 1023.835326,223.762126 837.967996,379.611119 692.096282,520.395838"/>
    <poly id="727702106" type="building" color="255,230,230" fill="1" layer="-1.00" shape="704.479117,366.100572 717.791602,349.718503 688.276042,325.355602 665.226579,352.959809 667.878325,355.158958 661.964490,362.247816 669.161709,368.191614 674.270461,362.067387 693.813270,378.122911 704.479117,366.100572"/>
    <poly id="729377561" type="leisure" color="207,245,201" fill="1" layer="-2.00" shape="660.561321,339.666517 638.485893,321.266110 629.767650,331.609117 651.843075,350.009510 660.561321,339.666517"/>
    <poly id="729377561#1" type="sport" color="79,230,125" fill="1" layer="-2.00" shape="660.561321,339.666517 638.485893,321.266110 629.767650,331.609117 651.843075,350.009510 660.561321,339.666517"/>
    <poly id="744813317" type="amenity" color="237,199,199" fill="1" layer="-1.00" shape="283.149183,477.315890 286.324271,481.401855 276.015017,489.441821 272.711383,486.244097 283.149183,477.315890"/>