<?xml version="1.0" encoding="UTF-8"?>

<!-- generated on 2021-10-29 11:32:33 by Eclipse SUMO netconvert Version 1.10.0
<configuration xmlns:xsi="http://www.w3.org/2001/XMLSchema-instance" xsi:noNamespaceSchemaLocation="http://sumo.dlr.de/xsd/netconvertConfiguration.xsd">

    <input>
        <osm-files value="nthu.osm"/>
    </input>

    <output>
        <output-file value="map.net.xml"/>
    </output>

    <projection>
        <proj.utm value="true"/>
    </projection>

    <report>
        <aggregate-warnings value="5"/>
    </report>

</configuration>
-->

<net version="1.9" junctionCornerDetail="5" limitTurnSpeed="5.50" xmlns:xsi="http://www.w3.org/2001/XMLSchema-instance" xsi:noNamespaceSchemaLocation="http://sumo.dlr.de/xsd/net_file.xsd">

    <location netOffset="-296912.07,-2743306.91" convBoundary="0.00,0.00,1313.15,1070.96" origBoundary="120.990943,24.791110,121.004066,24.800881" projParameter="+proj=utm +zone=51 +ellps=WGS84 +datum=WGS84 +units=m +no_defs"/>

    <type id="highway.bridleway" priority="1" numLanes="1" speed="2.78" allow="pedestrian" oneway="1" width="2.00"/>
    <type id="highway.bus_guideway" priority="1" numLanes="1" speed="27.78" allow="bus" oneway="1"/>
    <type id="highway.cycleway" priority="1" numLanes="1" speed="8.33" allow="bicycle" oneway="0" width="1.00"/>
    <type id="highway.footway" priority="1" numLanes="1" speed="2.78" allow="pedestrian" oneway="1" width="2.00"/>
    <type id="highway.ford" priority="1" numLanes="1" speed="2.78" allow="army" oneway="0"/>
    <type id="highway.living_street" priority="2" numLanes="1" speed="2.78" disallow="tram rail_urban rail rail_electric rail_fast ship" oneway="0"/>
    <type id="highway.motorway" priority="14" numLanes="2" speed="39.44" allow="private emergency authority army vip passenger hov taxi bus coach delivery truck trailer motorcycle evehicle custom1 custom2" oneway="1"/>
    <type id="highway.motorway_link" priority="9" numLanes="1" speed="22.22" allow="private emergency authority army vip passenger hov taxi bus coach delivery truck trailer motorcycle evehicle custom1 custom2" oneway="1"/>
    <type id="highway.path" priority="1" numLanes="1" speed="2.78" allow="pedestrian bicycle" oneway="0" width="2.00"/>
    <type id="highway.pedestrian" priority="1" numLanes="1" speed="2.78" allow="pedestrian" oneway="1" width="2.00"/>
    <type id="highway.primary" priority="12" numLanes="2" speed="27.78" disallow="tram rail_urban rail rail_electric rail_fast ship" oneway="0"/>
    <type id="highway.primary_link" priority="7" numLanes="1" speed="22.22" disallow="tram rail_urban rail rail_electric rail_fast ship" oneway="0"/>
    <type id="highway.raceway" priority="15" numLanes="2" speed="83.33" allow="vip" oneway="0"/>
    <type id="highway.residential" priority="3" numLanes="1" speed="13.89" disallow="tram rail_urban rail rail_electric rail_fast ship" oneway="0"/>
    <type id="highway.secondary" priority="11" numLanes="1" speed="27.78" disallow="tram rail_urban rail rail_electric rail_fast ship" oneway="0"/>
    <type id="highway.secondary_link" priority="6" numLanes="1" speed="22.22" disallow="tram rail_urban rail rail_electric rail_fast ship" oneway="0"/>
    <type id="highway.service" priority="1" numLanes="1" speed="5.56" allow="pedestrian delivery bicycle" oneway="0"/>
    <type id="highway.stairs" priority="1" numLanes="1" speed="1.39" allow="pedestrian" oneway="1" width="2.00"/>
    <type id="highway.step" priority="1" numLanes="1" speed="1.39" allow="pedestrian" oneway="1" width="2.00"/>
    <type id="highway.steps" priority="1" numLanes="1" speed="1.39" allow="pedestrian" oneway="1" width="2.00"/>
    <type id="highway.tertiary" priority="10" numLanes="1" speed="22.22" disallow="tram rail_urban rail rail_electric rail_fast ship" oneway="0"/>
    <type id="highway.tertiary_link" priority="5" numLanes="1" speed="22.22" disallow="tram rail_urban rail rail_electric rail_fast ship" oneway="0"/>
    <type id="highway.track" priority="1" numLanes="1" speed="5.56" allow="pedestrian motorcycle moped bicycle" oneway="0"/>
    <type id="highway.trunk" priority="13" numLanes="2" speed="27.78" disallow="pedestrian bicycle tram rail_urban rail rail_electric rail_fast ship" oneway="0"/>
    <type id="highway.trunk_link" priority="8" numLanes="1" speed="22.22" disallow="pedestrian bicycle tram rail_urban rail rail_electric rail_fast ship" oneway="0"/>
    <type id="highway.unclassified" priority="4" numLanes="1" speed="13.89" disallow="tram rail_urban rail rail_electric rail_fast ship" oneway="0"/>
    <type id="highway.unsurfaced" priority="1" numLanes="1" speed="8.33" disallow="tram rail_urban rail rail_electric rail_fast ship" oneway="0"/>
    <type id="railway.highspeed" priority="21" numLanes="1" speed="69.44" allow="rail_fast" oneway="1"/>
    <type id="railway.light_rail" priority="19" numLanes="1" speed="27.78" allow="rail_urban" oneway="1"/>
    <type id="railway.preserved" priority="16" numLanes="1" speed="27.78" allow="rail" oneway="1"/>
    <type id="railway.rail" priority="20" numLanes="1" speed="44.44" allow="rail" oneway="1"/>
    <type id="railway.subway" priority="18" numLanes="1" speed="27.78" allow="rail_urban" oneway="1"/>
    <type id="railway.tram" priority="17" numLanes="1" speed="13.89" allow="tram" oneway="1"/>

    <edge id=":1101581911_0" function="internal">
        <lane id=":1101581911_0_0" index="0" allow="pedestrian delivery bicycle" speed="5.56" length="9.27" shape="843.38,566.23 836.47,572.41"/>
    </edge>
    <edge id=":1101581911_1" function="internal">
        <lane id=":1101581911_1_0" index="0" allow="pedestrian delivery bicycle" speed="5.56" length="10.12" shape="843.38,566.23 841.14,567.65 838.89,568.02 836.64,567.36 834.37,565.66"/>
    </edge>
    <edge id=":1101581911_2" function="internal">
        <lane id=":1101581911_2_0" index="0" allow="pedestrian delivery bicycle" speed="3.65" length="4.67" shape="843.38,566.23 841.95,566.41 841.13,566.07 840.91,565.20 841.29,563.81"/>
    </edge>
    <edge id=":1101581911_3" function="internal">
        <lane id=":1101581911_3_0" index="0" allow="pedestrian delivery bicycle" speed="5.29" length="5.26" shape="836.61,563.38 837.81,564.30 839.00,564.67 840.15,564.51 841.29,563.81"/>
    </edge>
    <edge id=":1101581911_4" function="internal">
        <lane id=":1101581911_4_0" index="0" allow="pedestrian delivery bicycle" speed="5.56" length="10.43" shape="836.61,563.38 838.36,565.66 838.92,567.93 838.29,570.18 836.47,572.41"/>
    </edge>
    <edge id=":1101581911_5" function="internal">
        <lane id=":1101581911_5_0" index="0" allow="pedestrian delivery bicycle" speed="3.65" length="4.67" shape="836.61,563.38 836.91,564.79 836.63,565.64 835.79,565.93 834.37,565.66"/>
    </edge>
    <edge id=":1101581911_6" function="internal">
        <lane id=":1101581911_6_0" index="0" allow="pedestrian delivery bicycle" speed="4.98" length="5.06" shape="834.30,570.05 835.19,568.97 835.49,567.87 835.22,566.77 834.37,565.66"/>
    </edge>
    <edge id=":1101581911_7" function="internal">
        <lane id=":1101581911_7_0" index="0" allow="pedestrian delivery bicycle" speed="5.56" length="9.37" shape="834.30,570.05 841.29,563.81"/>
    </edge>
    <edge id=":1101581911_8" function="internal">
        <lane id=":1101581911_8_0" index="0" allow="pedestrian delivery bicycle" speed="3.65" length="4.67" shape="834.30,570.05 835.73,569.83 836.56,570.15 836.81,571.01 836.47,572.41"/>
    </edge>
    <edge id=":1101581917_0" function="internal">
        <lane id=":1101581917_0_0" index="0" allow="pedestrian delivery bicycle" speed="5.56" length="9.69" shape="869.64,543.13 862.50,549.68"/>
    </edge>
    <edge id=":1101581917_1" function="internal">
        <lane id=":1101581917_1_0" index="0" allow="pedestrian delivery bicycle" speed="5.56" length="10.32" shape="869.64,543.13 867.39,544.77 865.13,545.27 862.86,544.64 860.59,542.88"/>
    </edge>
    <edge id=":1101581917_2" function="internal">
        <lane id=":1101581917_2_0" index="0" allow="pedestrian delivery bicycle" speed="3.65" length="4.67" shape="869.64,543.13 868.22,543.40 867.38,543.11 867.11,542.25 867.41,540.84"/>
    </edge>
    <edge id=":1101581917_3" function="internal">
        <lane id=":1101581917_3_0" index="0" allow="pedestrian delivery bicycle" speed="5.11" length="5.17" shape="862.88,540.64 864.03,541.54 865.17,541.87 866.29,541.64 867.41,540.84"/>
    </edge>
    <edge id=":1101581917_4" function="internal">
        <lane id=":1101581917_4_0" index="0" allow="pedestrian delivery bicycle" speed="5.56" length="10.47" shape="862.88,540.64 864.59,542.98 865.09,545.26 864.40,547.50 862.50,549.68"/>
    </edge>
    <edge id=":1101581917_5" function="internal">
        <lane id=":1101581917_5_0" index="0" allow="pedestrian delivery bicycle" speed="3.65" length="4.67" shape="862.88,540.64 863.15,542.06 862.85,542.91 862.00,543.18 860.59,542.88"/>
    </edge>
    <edge id=":1101581917_6" function="internal">
        <lane id=":1101581917_6_0" index="0" allow="pedestrian delivery bicycle" speed="4.98" length="5.07" shape="860.41,547.26 861.33,546.20 861.66,545.12 861.42,544.01 860.59,542.88"/>
    </edge>
    <edge id=":1101581917_7" function="internal">
        <lane id=":1101581917_7_0" index="0" allow="pedestrian delivery bicycle" speed="5.56" length="9.50" shape="860.41,547.26 867.41,540.84"/>
    </edge>
    <edge id=":1101581917_8" function="internal">
        <lane id=":1101581917_8_0" index="0" allow="pedestrian delivery bicycle" speed="3.65" length="4.67" shape="860.41,547.26 861.84,547.08 862.67,547.43 862.89,548.29 862.50,549.68"/>
    </edge>
    <edge id=":1101582025_0" function="internal">
        <lane id=":1101582025_0_0" index="0" allow="pedestrian delivery bicycle" speed="5.02" length="5.02" shape="894.21,523.55 893.14,522.69 892.05,522.39 890.94,522.65 889.83,523.46"/>
    </edge>
    <edge id=":1101582025_1" function="internal">
        <lane id=":1101582025_1_0" index="0" allow="pedestrian delivery bicycle" speed="5.56" length="9.38" shape="894.21,523.55 887.80,516.70"/>
    </edge>
    <edge id=":1101582025_2" function="internal">
        <lane id=":1101582025_2_0" index="0" allow="pedestrian delivery bicycle" speed="3.65" length="4.67" shape="894.21,523.55 893.97,522.13 894.28,521.29 895.13,521.03 896.54,521.35"/>
    </edge>
    <edge id=":1101582025_3" function="internal">
        <lane id=":1101582025_3_0" index="0" allow="pedestrian delivery bicycle" speed="5.56" length="9.35" shape="890.15,514.52 896.54,521.35"/>
    </edge>
    <edge id=":1101582025_4" function="internal">
        <lane id=":1101582025_4_0" index="0" allow="pedestrian delivery bicycle" speed="5.56" length="10.14" shape="890.15,514.52 891.71,516.78 892.17,519.02 891.55,521.25 889.83,523.46"/>
    </edge>
    <edge id=":1101582025_5" function="internal">
        <lane id=":1101582025_5_0" index="0" allow="pedestrian delivery bicycle" speed="3.65" length="4.67" shape="890.15,514.52 890.38,515.95 890.07,516.78 889.21,517.03 887.80,516.70"/>
    </edge>
    <edge id=":1101582025_6" function="internal">
        <lane id=":1101582025_6_0" index="0" allow="pedestrian delivery bicycle" speed="5.11" length="5.08" shape="887.60,521.17 888.47,520.05 888.79,518.94 888.57,517.82 887.80,516.70"/>
    </edge>
    <edge id=":1101582025_7" function="internal">
        <lane id=":1101582025_7_0" index="0" allow="pedestrian delivery bicycle" speed="5.56" length="10.24" shape="887.60,521.17 889.87,519.51 892.12,518.99 894.34,519.60 896.54,521.35"/>
    </edge>
    <edge id=":1101582025_8" function="internal">
        <lane id=":1101582025_8_0" index="0" allow="pedestrian delivery bicycle" speed="3.65" length="4.67" shape="887.60,521.17 889.02,520.90 889.86,521.20 890.13,522.05 889.83,523.46"/>
    </edge>
    <edge id=":1101582099_0" function="internal">
        <lane id=":1101582099_0_0" index="0" allow="pedestrian delivery bicycle" speed="3.65" length="4.67" shape="825.76,582.25 824.33,582.47 823.50,582.15 823.25,581.29 823.59,579.89"/>
    </edge>
    <edge id=":1101582254_0" function="internal">
        <lane id=":1101582254_0_0" index="0" allow="pedestrian delivery bicycle" speed="5.19" length="5.18" shape="786.78,519.12 785.61,518.24 784.45,517.91 783.32,518.12 782.20,518.88"/>
    </edge>
    <edge id=":1101582254_1" function="internal">
        <lane id=":1101582254_1_0" index="0" allow="pedestrian delivery bicycle" speed="6.83" length="10.38" shape="786.78,519.12 785.04,516.85 784.48,514.60 785.09,512.35 786.88,510.12"/>
    </edge>
    <edge id=":1101582254_2" function="internal">
        <lane id=":1101582254_2_0" index="0" allow="pedestrian delivery bicycle" speed="3.65" length="4.67" shape="786.78,519.12 786.48,517.71 786.76,516.86 787.60,516.57 789.02,516.84"/>
    </edge>
    <edge id=":1101582254_3" function="internal">
        <lane id=":1101582254_3_0" index="0" allow="pedestrian delivery bicycle" speed="4.99" length="5.05" shape="789.07,512.45 788.20,513.54 787.90,514.63 788.17,515.73 789.02,516.84"/>
    </edge>
    <edge id=":1101582254_4" function="internal">
        <lane id=":1101582254_4_0" index="0" disallow="tram rail_urban rail rail_electric rail_fast ship" speed="13.89" length="9.41" shape="789.07,512.45 782.20,518.88"/>
    </edge>
    <edge id=":1101582254_5" function="internal">
        <lane id=":1101582254_5_0" index="0" disallow="tram rail_urban rail rail_electric rail_fast ship" speed="3.65" length="2.34" shape="789.07,512.45 787.64,512.69 786.81,512.38"/>
    </edge>
    <edge id=":1101582254_9" function="internal">
        <lane id=":1101582254_9_0" index="0" disallow="tram rail_urban rail rail_electric rail_fast ship" speed="3.65" length="2.34" shape="786.81,512.38 786.55,511.52 786.88,510.12"/>
    </edge>
    <edge id=":1101582254_6" function="internal">
        <lane id=":1101582254_6_0" index="0" disallow="tram rail_urban rail rail_electric rail_fast ship" speed="13.89" length="9.40" shape="780.02,516.55 786.88,510.12"/>
    </edge>
    <edge id=":1101582254_7" function="internal">
        <lane id=":1101582254_7_0" index="0" allow="pedestrian delivery bicycle" speed="6.97" length="5.01" shape="780.02,516.55 782.25,515.00 784.49,514.54"/>
    </edge>
    <edge id=":1101582254_8" function="internal">
        <lane id=":1101582254_8_0" index="0" disallow="tram rail_urban rail rail_electric rail_fast ship" speed="3.65" length="2.34" shape="780.02,516.55 781.44,516.31 782.28,516.62"/>
    </edge>
    <edge id=":1101582254_10" function="internal">
        <lane id=":1101582254_10_0" index="0" allow="pedestrian delivery bicycle" speed="6.97" length="5.17" shape="784.49,514.54 786.75,515.15 789.02,516.84"/>
    </edge>
    <edge id=":1101582254_11" function="internal">
        <lane id=":1101582254_11_0" index="0" disallow="tram rail_urban rail rail_electric rail_fast ship" speed="3.65" length="2.34" shape="782.28,516.62 782.53,517.48 782.20,518.88"/>
    </edge>
    <edge id=":1101582268_0" function="internal">
        <lane id=":1101582268_0_0" index="0" allow="pedestrian delivery bicycle" speed="6.00" length="7.41" shape="813.09,494.32 811.85,493.56 810.35,493.59 808.61,494.40 806.63,495.99"/>
    </edge>
    <edge id=":1101582268_1" function="internal">
        <lane id=":1101582268_1_0" index="0" allow="pedestrian delivery bicycle" speed="9.72" length="12.08" shape="813.09,494.32 804.51,485.81"/>
    </edge>
    <edge id=":1101582268_2" function="internal">
        <lane id=":1101582268_2_0" index="0" allow="pedestrian delivery bicycle" speed="7.20" length="11.47" shape="813.09,494.32 812.07,492.05 812.21,489.11 813.25,486.15 814.95,483.80"/>
    </edge>
    <edge id=":1101582268_3" function="internal">
        <lane id=":1101582268_3_0" index="0" allow="pedestrian delivery bicycle" speed="3.65" length="4.67" shape="813.09,494.32 812.82,492.90 813.11,492.05 813.97,491.78 815.38,492.08"/>
    </edge>
    <edge id=":1101582268_4" function="internal">
        <lane id=":1101582268_4_0" index="0" allow="pedestrian delivery bicycle" speed="5.76" length="6.95" shape="817.14,486.13 815.55,487.89 814.72,489.47 814.67,490.87 815.38,492.08"/>
    </edge>
    <edge id=":1101582268_5" function="internal">
        <lane id=":1101582268_5_0" index="0" disallow="tram rail_urban rail rail_electric rail_fast ship" speed="13.89" length="14.41" shape="817.14,486.13 806.63,495.99"/>
    </edge>
    <edge id=":1101582268_6" function="internal">
        <lane id=":1101582268_6_0" index="0" disallow="tram rail_urban rail rail_electric rail_fast ship" speed="8.16" length="5.85" shape="817.14,486.13 814.00,488.32 812.02,488.74"/>
    </edge>
    <edge id=":1101582268_7" function="internal">
        <lane id=":1101582268_7_0" index="0" disallow="tram rail_urban rail rail_electric rail_fast ship" speed="3.65" length="2.34" shape="817.14,486.13 815.72,486.37 814.88,486.06"/>
    </edge>
    <edge id=":1101582268_16" function="internal">
        <lane id=":1101582268_16_0" index="0" disallow="tram rail_urban rail rail_electric rail_fast ship" speed="8.16" length="8.42" shape="812.02,488.74 810.85,488.99 807.68,488.16 804.51,485.81"/>
    </edge>
    <edge id=":1101582268_17" function="internal">
        <lane id=":1101582268_17_0" index="0" disallow="tram rail_urban rail rail_electric rail_fast ship" speed="3.65" length="2.34" shape="814.88,486.06 814.62,485.20 814.95,483.80"/>
    </edge>
    <edge id=":1101582268_8" function="internal">
        <lane id=":1101582268_8_0" index="0" disallow="tram rail_urban rail rail_electric rail_fast ship" speed="6.70" length="9.28" shape="806.73,483.52 808.81,485.06 810.88,485.62 812.92,485.20 814.95,483.80"/>
    </edge>
    <edge id=":1101582268_9" function="internal">
        <lane id=":1101582268_9_0" index="0" allow="pedestrian delivery bicycle" speed="9.72" length="12.17" shape="806.73,483.52 815.38,492.08"/>
    </edge>
    <edge id=":1101582268_10" function="internal">
        <lane id=":1101582268_10_0" index="0" disallow="tram rail_urban rail rail_electric rail_fast ship" speed="7.92" length="14.37" shape="806.73,483.52 809.16,486.66 809.95,489.78 809.10,492.89 806.63,495.99"/>
    </edge>
    <edge id=":1101582268_11" function="internal">
        <lane id=":1101582268_11_0" index="0" disallow="tram rail_urban rail rail_electric rail_fast ship" speed="3.65" length="4.67" shape="806.73,483.52 807.04,484.93 806.77,485.78 805.92,486.08 804.51,485.81"/>
    </edge>
    <edge id=":1101582268_12" function="internal">
        <lane id=":1101582268_12_0" index="0" disallow="tram rail_urban rail rail_electric rail_fast ship" speed="6.41" length="9.03" shape="804.44,493.65 805.99,491.71 806.52,489.75 806.03,487.79 804.51,485.81"/>
    </edge>
    <edge id=":1101582268_13" function="internal">
        <lane id=":1101582268_13_0" index="0" disallow="tram rail_urban rail rail_electric rail_fast ship" speed="13.89" length="14.41" shape="804.44,493.65 814.95,483.80"/>
    </edge>
    <edge id=":1101582268_14" function="internal">
        <lane id=":1101582268_14_0" index="0" allow="pedestrian delivery bicycle" speed="7.40" length="5.41" shape="804.44,493.65 806.97,492.02 809.26,491.32"/>
    </edge>
    <edge id=":1101582268_15" function="internal">
        <lane id=":1101582268_15_0" index="0" disallow="tram rail_urban rail rail_electric rail_fast ship" speed="3.65" length="2.34" shape="804.44,493.65 805.86,493.41 806.70,493.72"/>
    </edge>
    <edge id=":1101582268_18" function="internal">
        <lane id=":1101582268_18_0" index="0" allow="pedestrian delivery bicycle" speed="7.40" length="6.39" shape="809.26,491.32 810.08,491.07 813.11,491.01 815.38,492.08"/>
    </edge>
    <edge id=":1101582268_19" function="internal">
        <lane id=":1101582268_19_0" index="0" disallow="tram rail_urban rail rail_electric rail_fast ship" speed="3.65" length="2.34" shape="806.70,493.72 806.96,494.58 806.63,495.99"/>
    </edge>
    <edge id=":1101582406_0" function="internal">
        <lane id=":1101582406_0_0" index="0" allow="pedestrian delivery bicycle" speed="3.90" length="2.59" shape="840.93,466.05 840.38,465.60 839.82,465.43 839.25,465.56 838.67,465.96"/>
    </edge>
    <edge id=":1101582406_1" function="internal">
        <lane id=":1101582406_1_0" index="0" allow="pedestrian delivery bicycle" speed="6.08" length="7.78" shape="836.48,463.63 838.22,462.41 839.94,462.04 841.63,462.53 843.28,463.87"/>
    </edge>
    <edge id=":1101582406_2" function="internal">
        <lane id=":1101582406_2_0" index="0" disallow="tram rail_urban rail rail_electric rail_fast ship" speed="3.65" length="4.67" shape="836.48,463.63 837.90,463.39 838.74,463.70 838.99,464.56 838.67,465.96"/>
    </edge>
    <edge id=":1101582658_0" function="internal">
        <lane id=":1101582658_0_0" index="0" disallow="tram rail_urban rail rail_electric rail_fast ship" speed="22.22" length="14.57" shape="819.76,601.90 805.57,598.58"/>
    </edge>
    <edge id=":1101582658_1" function="internal">
        <lane id=":1101582658_1_0" index="0" disallow="tram rail_urban rail rail_electric rail_fast ship" speed="8.45" length="6.29" shape="819.76,601.90 816.53,600.70 814.27,598.97"/>
    </edge>
    <edge id=":1101582658_2" function="internal">
        <lane id=":1101582658_2_0" index="0" disallow="tram rail_urban rail rail_electric rail_fast ship" speed="3.65" length="2.34" shape="819.76,601.90 818.78,600.83 818.59,599.96"/>
    </edge>
    <edge id=":1101582658_9" function="internal">
        <lane id=":1101582658_9_0" index="0" disallow="tram rail_urban rail rail_electric rail_fast ship" speed="8.45" length="5.99" shape="814.27,598.97 814.17,598.90 812.68,596.51 812.05,593.53"/>
    </edge>
    <edge id=":1101582658_10" function="internal">
        <lane id=":1101582658_10_0" index="0" disallow="tram rail_urban rail rail_electric rail_fast ship" speed="3.65" length="2.34" shape="818.59,599.96 819.17,599.28 820.52,598.79"/>
    </edge>
    <edge id=":1101582658_3" function="internal">
        <lane id=":1101582658_3_0" index="0" disallow="tram rail_urban rail rail_electric rail_fast ship" speed="7.18" length="8.63" shape="815.21,592.81 815.65,594.96 816.68,596.67 818.31,597.95 820.52,598.79"/>
    </edge>
    <edge id=":1101582658_4" function="internal">
        <lane id=":1101582658_4_0" index="0" disallow="tram rail_urban rail rail_electric rail_fast ship" speed="7.20" length="13.72" shape="815.21,592.81 814.79,596.18 813.04,598.27 809.97,599.07 805.57,598.58"/>
    </edge>
    <edge id=":1101582658_5" function="internal">
        <lane id=":1101582658_5_0" index="0" disallow="tram rail_urban rail rail_electric rail_fast ship" speed="3.67" length="4.73" shape="815.21,592.81 814.69,594.18 813.99,594.75 813.11,594.53 812.05,593.53"/>
    </edge>
    <edge id=":1101582658_6" function="internal">
        <lane id=":1101582658_6_0" index="0" disallow="tram rail_urban rail rail_electric rail_fast ship" speed="5.40" length="7.16" shape="806.27,595.46 808.87,595.84 810.70,595.64 811.76,594.87 812.05,593.53"/>
    </edge>
    <edge id=":1101582658_7" function="internal">
        <lane id=":1101582658_7_0" index="0" disallow="tram rail_urban rail rail_electric rail_fast ship" speed="22.22" length="14.64" shape="806.27,595.46 820.52,598.79"/>
    </edge>
    <edge id=":1101582658_8" function="internal">
        <lane id=":1101582658_8_0" index="0" disallow="tram rail_urban rail rail_electric rail_fast ship" speed="3.65" length="2.34" shape="806.27,595.46 807.27,596.50 807.48,597.37"/>
    </edge>
    <edge id=":1101582658_11" function="internal">
        <lane id=":1101582658_11_0" index="0" disallow="tram rail_urban rail rail_electric rail_fast ship" speed="3.65" length="2.34" shape="807.48,597.37 806.92,598.06 805.57,598.58"/>
    </edge>
    <edge id=":1101582754_0" function="internal">
        <lane id=":1101582754_0_0" index="0" allow="pedestrian delivery bicycle" speed="3.65" length="4.67" shape="924.89,551.34 925.13,552.76 924.82,553.60 923.97,553.86 922.56,553.54"/>
    </edge>
    <edge id=":1747621094_0" function="internal">
        <lane id=":1747621094_0_0" index="0" disallow="tram rail_urban rail rail_electric rail_fast ship" speed="3.65" length="4.67" shape="1088.81,1069.98 1088.91,1071.42 1088.52,1072.23 1087.64,1072.40 1086.27,1071.94"/>
    </edge>
    <edge id=":1953248250_0" function="internal">
        <lane id=":1953248250_0_0" index="0" allow="pedestrian delivery bicycle" speed="5.23" length="5.32" shape="559.57,820.59 558.19,820.15 556.98,820.25 555.95,820.89 555.10,822.06"/>
    </edge>
    <edge id=":1953248250_1" function="internal">
        <lane id=":1953248250_1_0" index="0" disallow="tram rail_urban rail rail_electric rail_fast ship" speed="13.89" length="9.62" shape="559.57,820.59 550.90,816.40"/>
    </edge>
    <edge id=":1953248250_2" function="internal">
        <lane id=":1953248250_2_0" index="0" allow="pedestrian delivery bicycle" speed="6.83" length="2.30" shape="559.57,820.59 557.66,819.30"/>
    </edge>
    <edge id=":1953248250_3" function="internal">
        <lane id=":1953248250_3_0" index="0" disallow="tram rail_urban rail rail_electric rail_fast ship" speed="3.65" length="2.34" shape="559.57,820.59 558.84,819.35 558.83,818.46"/>
    </edge>
    <edge id=":1953248250_16" function="internal">
        <lane id=":1953248250_16_0" index="0" allow="pedestrian delivery bicycle" speed="6.83" length="8.03" shape="557.66,819.30 557.21,819.00 555.96,817.05 555.81,814.73 556.77,812.05"/>
    </edge>
    <edge id=":1953248250_17" function="internal">
        <lane id=":1953248250_17_0" index="0" disallow="tram rail_urban rail rail_electric rail_fast ship" speed="3.65" length="2.34" shape="558.83,818.46 559.53,817.91 560.96,817.71"/>
    </edge>
    <edge id=":1953248250_4" function="internal">
        <lane id=":1953248250_4_0" index="0" allow="pedestrian delivery bicycle" speed="5.00" length="5.04" shape="559.60,813.55 559.13,814.85 559.20,815.98 559.81,816.94 560.96,817.71"/>
    </edge>
    <edge id=":1953248250_5" function="internal">
        <lane id=":1953248250_5_0" index="0" allow="pedestrian delivery bicycle" speed="5.56" length="9.63" shape="559.60,813.55 555.10,822.06"/>
    </edge>
    <edge id=":1953248250_6" function="internal">
        <lane id=":1953248250_6_0" index="0" allow="pedestrian delivery bicycle" speed="7.01" length="10.35" shape="559.60,813.55 557.94,815.83 555.94,817.07 553.59,817.26 550.90,816.40"/>
    </edge>
    <edge id=":1953248250_7" function="internal">
        <lane id=":1953248250_7_0" index="0" allow="pedestrian delivery bicycle" speed="3.65" length="4.67" shape="559.60,813.55 558.33,814.23 557.43,814.22 556.91,813.49 556.77,812.05"/>
    </edge>
    <edge id=":1953248250_8" function="internal">
        <lane id=":1953248250_8_0" index="0" allow="pedestrian delivery bicycle" speed="5.24" length="5.33" shape="552.29,813.52 553.68,813.96 554.88,813.87 555.91,813.23 556.77,812.05"/>
    </edge>
    <edge id=":1953248250_9" function="internal">
        <lane id=":1953248250_9_0" index="0" disallow="tram rail_urban rail rail_electric rail_fast ship" speed="13.89" length="9.63" shape="552.29,813.52 560.96,817.71"/>
    </edge>
    <edge id=":1953248250_10" function="internal">
        <lane id=":1953248250_10_0" index="0" allow="pedestrian delivery bicycle" speed="6.83" length="2.31" shape="552.29,813.52 554.21,814.81"/>
    </edge>
    <edge id=":1953248250_11" function="internal">
        <lane id=":1953248250_11_0" index="0" disallow="tram rail_urban rail rail_electric rail_fast ship" speed="3.65" length="2.34" shape="552.29,813.52 553.02,814.76 553.04,815.66"/>
    </edge>
    <edge id=":1953248250_18" function="internal">
        <lane id=":1953248250_18_0" index="0" allow="pedestrian delivery bicycle" speed="6.83" length="8.03" shape="554.21,814.81 554.66,815.11 555.91,817.06 556.06,819.38 555.10,822.06"/>
    </edge>
    <edge id=":1953248250_19" function="internal">
        <lane id=":1953248250_19_0" index="0" disallow="tram rail_urban rail rail_electric rail_fast ship" speed="3.65" length="2.34" shape="553.04,815.66 552.33,816.20 550.90,816.40"/>
    </edge>
    <edge id=":1953248250_12" function="internal">
        <lane id=":1953248250_12_0" index="0" allow="pedestrian delivery bicycle" speed="5.00" length="5.04" shape="552.27,820.57 552.74,819.26 552.67,818.13 552.05,817.18 550.90,816.40"/>
    </edge>
    <edge id=":1953248250_13" function="internal">
        <lane id=":1953248250_13_0" index="0" allow="pedestrian delivery bicycle" speed="5.56" length="9.63" shape="552.27,820.57 556.77,812.05"/>
    </edge>
    <edge id=":1953248250_14" function="internal">
        <lane id=":1953248250_14_0" index="0" allow="pedestrian delivery bicycle" speed="7.01" length="10.35" shape="552.27,820.57 553.93,818.28 555.93,817.04 558.28,816.85 560.96,817.71"/>
    </edge>
    <edge id=":1953248250_15" function="internal">
        <lane id=":1953248250_15_0" index="0" allow="pedestrian delivery bicycle" speed="3.65" length="4.67" shape="552.27,820.57 553.54,819.88 554.43,819.90 554.96,820.63 555.10,822.06"/>
    </edge>
    <edge id=":1953248257_0" function="internal">
        <lane id=":1953248257_0_0" index="0" disallow="tram rail_urban rail rail_electric rail_fast ship" speed="13.89" length="9.41" shape="542.86,852.39 534.34,848.40"/>
    </edge>
    <edge id=":1953248257_1" function="internal">
        <lane id=":1953248257_1_0" index="0" allow="pedestrian delivery bicycle" speed="6.82" length="5.20" shape="542.86,852.39 540.46,850.81 539.18,848.86"/>
    </edge>
    <edge id=":1953248257_2" function="internal">