<?xml version="1.0" encoding="UTF-8"?>

<!-- generated on 2021-11-25 11:58:11 by Eclipse SUMO duarouter Version 1.10.0
<configuration xmlns:xsi="http://www.w3.org/2001/XMLSchema-instance" xsi:noNamespaceSchemaLocation="http://sumo.dlr.de/xsd/duarouterConfiguration.xsd">

    <input>
        <net-file value="C:\Traffic_Simulation\Test_2\map.net.xml"/>
        <route-files value="C:\Traffic_Simulation\Test_2\od_file.odtrips.xml"/>
    </input>

    <output>
        <output-file value="C:\Traffic_Simulation\Test_2\od_route_file.odtrips.rouxml"/>
    </output>

    <report>
        <xml-validation value="never"/>
        <xml-validation.routes value="never"/>
        <no-step-log value="true"/>
    </report>

</configuration>
-->

<routes xmlns:xsi="http://www.w3.org/2001/XMLSchema-instance" xsi:noNamespaceSchemaLocation="http://sumo.dlr.de/xsd/routes_file.xsd">
    <vehicle id="9" depart="18.39" departLane="free" departSpeed="max" fromTaz="1" toTaz="2">
        <route edges="28507753#2 28507754#0 28507754#1 28507754#2 28507754#3 375910967#0 375910967#1 29252057#4 29252057#5 29252057#6 29252057#7"/>
    </vehicle>
    <vehicle id="5" depart="55.65" departLane="free" departSpeed="max" fromTaz="1" toTaz="2">
        <route edges="28507753#2 28507754#0 28507754#1 28507754#2 28507754#3 375910967#0 375910967#1 29252057#4 29252057#5 29252057#6 29252057#7"/>
    </vehicle>
    <vehicle id="18" depart="163.02" departLane="free" departSpeed="max" fromTaz="1" toTaz="3">
        <route edges="28507753#2 28507754#0 28507754#1 28507754#2 28507754#3 375910967#0 375910967#1 375910967#2 375910967#3 -29252090#4 -29252090#3 -29252090#2 -29252090#1"/>
    </vehicle>
    <vehicle id="26" depart="238.38" departLane="free" departSpeed="max" fromTaz="1" toTaz="4">
        <route edges="28507753#2 28507754#0 28507754#1 28507754#2 28507754#3 375910967#0 375910967#1 375910967#2 375910967#3 375910967#4 35953176#0 35953176#1 35953176#2 35953176#3"/>
    </vehicle>
    <vehicle id="7" depart="381.92" departLane="free" departSpeed="max" fromTaz="1" toTaz="2">
        <route edges="28507753#2 28507754#0 28507754#1 28507754#2 28507754#3 375910967#0 375910967#1 29252057#4 29252057#5 29252057#6 29252057#7"/>
    </vehicle>
    <vehicle id="29" depart="433.87" departLane="free" departSpeed="max" fromTaz="1" toTaz="4">
        <route edges="28507753#2 28507754#0 28507754#1 28507754#2 28507754#3 375910967#0 375910967#1 375910967#2 375910967#3 375910967#4 35953176#0 35953176#1 35953176#2 35953176#3"/>
    </vehicle>
    <vehicle id="25" depart="436.43" departLane="free" departSpeed="max" fromTaz="1" toTaz="4">
        <route edges="28507753#2 28507754#0 28507754#1 28507754#2 28507754#3 375910967#0 375910967#1 375910967#2 375910967#3 375910967#4 35953176#0 35953176#1 35953176#2 35953176#3"/>
    </vehicle>
    <vehicle id="1" depart="476.94" departLane="free" departSpeed="max" fromTaz="1" toTaz="2">
        <route edges="28507753#2 28507754#0 28507754#1 28507754#2 28507754#3 375910967#0 375910967#1 29252057#4 29252057#5 29252057#6 29252057#7"/>
    </vehicle>
    <vehicle id="22" depart="596.97" departLane="free" departSpeed="max" fromTaz="1" toTaz="4">
        <route edges="28507753#2 28507754#0 28507754#1 28507754#2 28507754#3 375910967#0 375910967#1 375910967#2 375910967#3 375910967#4 35953176#0 35953176#1 35953176#2 35953176#3"/>
    </vehicle>
    <vehicle id="21" depart="628.79" departLane="free" departSpeed="max" fromTaz="1" toTaz="4">
        <route edges="28507753#2 28507754#0 28507754#1 28507754#2 28507754#3 375910967#0 375910967#1 375910967#2 375910967#3 375910967#4 35953176#0 35953176#1 35953176#2 35953176#3"/>
    </vehicle>
    <vehicle id="14" depart="666.67" departLane="free" departSpeed="max" fromTaz="1" toTaz="3">
        <route edges="28507753#2 28507754#0 28507754#1 28507754#2 28507754#3 375910967#0 375910967#1 375910967#2 375910967#3 -29252090#4 -29252090#3 -29252090#2 -29252090#1"/>
    </vehicle>
    <vehicle id="16" depart="724.95" departLane="free" departSpeed="max" fromTaz="1" toTaz="3">
        <route edges="28507753#2 28507754#0 28507754#1 28507754#2 28507754#3 375910967#0 375910967#1 375910967#2 375910967#3 -29252090#4 -29252090#3 -29252090#2 -29252090#1"/>
    </vehicle>
    <vehicle id="3" depart="754.69" departLane="free" departSpeed="max" fromTaz="1" toTaz="2">
        <route edges="28507753#2 28507754#0 28507754#1 28507754#2 28507754#3 375910967#0 375910967#1 29252057#4 29252057#5 29252057#6 29252057#7"/>
    </vehicle>
    <vehicle id="23" depart="842.52" departLane="free" departSpeed="max" fromTaz="1" toTaz="4">
        <route edges="28507753#2 28507754#0 28507754#1 28507754#2 28507754#3 375910967#0 375910967#1 375910967#2 375910967#3 375910967#4 35953176#0 35953176#1 35953176#2 35953176#3"/>
    </vehicle>
    <vehicle id="28" depart="972.03" departLane="free" departSpeed="max" fromTaz="1" toTaz="4">
        <route edges="28507753#2 28507754#0 28507754#1 28507754#2 28507754#3 375910967#0 375910967#1 375910967#2 375910967#3 375910967#4 35953176#0 35953176#1 35953176#2 35953176#3"/>
    </vehicle>
    <vehicle id="27" depart="1118.06" departLane="free" departSpeed="max" fromTaz="1" toTaz="4">
        <route edges="28507753#2 28507754#0 28507754#1 28507754#2 28507754#3 375910967#0 375910967#1 375910967#2 375910967#3 375910967#4 35953176#0 35953176#1 35953176#2 35953176#3"/>
    </vehicle>
    <vehicle id="20" depart="1146.71" departLane="free" departSpeed="max" fromTaz="1" toTaz="4">
        <route edges="28507753#2 28507754#0 28507754#1 28507754#2 28507754#3 375910967#0 375910967#1 375910967#2 375910967#3 375910967#4 35953176#0 35953176#1 35953176#2 35953176#3"/>
    </vehicle>
    <vehicle id="13" depart="1372.68" departLane="free" departSpeed="max" fromTaz="1" toTaz="3">
        <route edges="28507753#2 28507754#0 28507754#1 28507754#2 28507754#3 375910967#0 375910967#1 375910967#2 375910967#3 -29252090#4 -29252090#3 -29252090#2 -29252090#1"/>
    </vehicle>
    <vehicle id="8" depart="1580.77" departLane="free" departSpeed="max" fromTaz="1" toTaz="2">
        <route edges="28507753#2 28507754#0 28507754#1 28507754#2 28507754#3 375910967#0 375910967#1 29252057#4 29252057#5 29252057#6 29252057#7"/>
    </vehicle>
    <vehicle id="6" depart="1817.33" departLane="free" departSpeed="max" fromTaz="1" toTaz="2">
        <route edges="28507753#2 28507754#0 28507754#1 28507754#2 28507754#3 375910967#0 375910967#1 29252057#4 29252057#5 29252057#6 29252057#7"/>
    </vehicle>
    <vehicle id="2" depart="1847.70" departLane="free" departSpeed="max" fromTaz="1" toTaz="2">
        <route edges="28507753#2 28507754#0 28507754#1 28507754#2 28507754#3 375910967#0 375910967#1 29252057#4 29252057#5 29252057#6 29252057#7"/>
    </vehicle>
    <vehicle id="17" depart="1848.48" departLane="free" departSpeed="max" fromTaz="1" toTaz="3">
        <route edges="28507753#2 28507754#0 28507754#1 28507754#2 28507754#3 375910967#0 375910967#1 375910967#2 375910967#3 -29252090#4 -29252090#3 -29252090#2 -29252090#1"/>
    </vehicle>
    <vehicle id="24" depart="1943.63" departLane="free" departSpeed="max" fromTaz="1" toTaz="4">
        <route edges="28507753#2 28507754#0 28507754#1 28507754#2 28507754#3 375910967#0 375910967#1 375910967#2 375910967#3 375910967#4 35953176#0 35953176#1 35953176#2 35953176#3"/>
    </vehicle>
    <vehicle id="11" depart="2015.92" departLane="free" departSpeed="max" fromTaz="1" toTaz="3">
        <route edges="28507753#2 28507754#0 28507754#1 28507754#2 28507754#3 375910967#0 375910967#1 375910967#2 375910967#3 -29252090#4 -29252090#3 -29252090#2 -29252090#1"/>
    </vehicle>
    <vehicle id="19" depart="2239.54" departLane="free" departSpeed="max" fromTaz="1" toTaz="3">
        <route edges="28507753#2 28507754#0 28507754#1 28507754#2 28507754#3 375910967#0 375910967#1 375910967#2 375910967#3 -29252090#4 -29252090#3 -29252090#2 -29252090#1"/>
    </vehicle>
    <vehicle id="15" depart="2248.33" departLane="free" departSpeed="max" fromTaz="1" toTaz="3">
        <route edges="28507753#2 28507754#0 28507754#1 28507754#2 28507754#3 375910967#0 375910967#1 375910967#2 375910967#3 -29252090#4 -29252090#3 -29252090#2 -29252090#1"/>
    </vehicle>
    <vehicle id="10" depart="2259.21" departLane="free" departSpeed="max" fromTaz="1" toTaz="3">
        <route edges="28507753#2 28507754#0 28507754#1 28507754#2 28507754#3 375910967#0 375910967#1 375910967#2 375910967#3 -29252090#4 -29252090#3 -29252090#2 -29252090#1"/>
    </vehicle>
    <vehicle id="0" depart="2488.08" departLane="free" departSpeed="max" fromTaz="1" toTaz="2">
        <route edges="28507753#2 28507754#0 28507754#1 28507754#2 28507754#3 375910967#0 375910967#1 29252057#4 29252057#5 29252057#6 29252057#7"/>
    </vehicle>
    <vehicle id="12" depart="2901.62" departLane="free" departSpeed="max" fromTaz="1" toTaz="3">
        <route edges="28507753#2 28507754#0 28507754#1 28507754#2 28507754#3 375910967#0 375910967#1 375910967#2 375910967#3 -29252090#4 -29252090#3 -29252090#2 -29252090#1"/>
    </vehicle>
    <vehicle id="4" depart="2950.16" departLane="free" departSpeed="max" fromTaz="1" toTaz="2">
        <route edges="28507753#2 28507754#0 28507754#1 28507754#2 28507754#3 375910967#0 375910967#1 29252057#4 29252057#5 29252057#6 29252057#7"/>
    </vehicle>
</routes>
