<additional>

	<tazs>
		<taz id = "1" edges = "28507753#2">
		</taz>
		<taz id = "2" edges = "29252057#7">
		</taz>
		<taz id = "3" edges = "-29252090#1">
		</taz>

		<taz id = "4" edges = "35953176#3">
		</taz>
	</tazs>

</additional>


